
Spectre (R) Circuit Simulator
Version 19.1.0.496.isr12 64bit -- 16 Oct 2020
Copyright (C) 1989-2020 Cadence Design Systems, Inc. All rights reserved worldwide. Cadence and Spectre are registered trademarks of Cadence Design Systems, Inc. All others are the property of their respective holders.

Includes RSA BSAFE(R) Cryptographic or Security Protocol Software from RSA Security, Inc.

User: wrkhalil   Host: digisrv3   HostID: 7F0100   PID: 80724
Memory  available: 1.3470 GB  physical: 540.4521 GB
Linux   : Red Hat Enterprise Linux Server release 7.9 (Maipo)
CPU Type: AMD EPYC 7601 32-Core Processor
All processors running at 2195.9 MHz
        Socket: Processors (Hyperthreaded Processor)
        0:       0 (),  8 (), 16 (), 24 (), 32 (), 40 (), 48 (), 56 (), 64 (), 72 ()
                80 (), 88 (), 96 (), 104 (), 112 (), 120 ()
        1:       2 (), 10 (), 18 (), 26 (), 34 (), 42 (), 50 (), 58 (), 66 (), 74 ()
                82 (), 90 (), 98 (), 106 (), 114 (), 122 ()
        2:       4 (), 12 (), 20 (), 28 (), 36 (), 44 (), 52 (), 60 (), 68 (), 76 ()
                84 (), 92 (), 100 (), 108 (), 116 (), 124 ()
        3:       6 (), 14 (), 22 (), 30 (), 38 (), 46 (), 54 (), 62 (), 70 (), 78 ()
                86 (), 94 (), 102 (), 110 (), 118 (), 126 ()
        4:       1 (),  9 (), 17 (), 25 (), 33 (), 41 (), 49 (), 57 (), 65 (), 73 ()
                81 (), 89 (), 97 (), 105 (), 113 (), 121 ()
        5:       3 (), 11 (), 19 (), 27 (), 35 (), 43 (), 51 (), 59 (), 67 (), 75 ()
                83 (), 91 (), 99 (), 107 (), 115 (), 123 ()
        6:       5 (), 13 (), 21 (), 29 (), 37 (), 45 (), 53 (), 61 (), 69 (), 77 ()
                85 (), 93 (), 101 (), 109 (), 117 (), 125 ()
        7:       7 (), 15 (), 23 (), 31 (), 39 (), 47 (), 55 (), 63 (), 71 (), 79 ()
                87 (), 95 (), 103 (), 111 (), 119 (), 127 ()
        
System load averages (1min, 5min, 15min) : 70.8 %, 82.5 %, 78.0 %
Hyperthreading is enabled
HPC is enabled


Simulating `input.scs' on digisrv3 at 4:20:32 AM, Sat Jul 16, 2022 (process id: 80724).
Current working directory: /home/wrkhalil/simulation/SYNC_SF_Core_testbench_schematic/spectre/schematic/netlist
Command line:
    /mscad/apps/Linux/cadence/SPECTRE191/tools.lnx86/bin/spectre -64  \
        input.scs +escchars +log ../psf/spectre.out -format psfxl -raw  \
        ../psf +aps=liberal +mt=64 +lqtimeout 900 -maxw 5 -maxn 5 -env  \
        ade

Loading /mscad/apps/Linux/cadence/SPECTRE191/tools.lnx86/cmi/lib/64bit/5.0/libinfineon_sh.so ...
Loading /mscad/apps/Linux/cadence/SPECTRE191/tools.lnx86/cmi/lib/64bit/5.0/libphilips_o_sh.so ...
Loading /mscad/apps/Linux/cadence/SPECTRE191/tools.lnx86/cmi/lib/64bit/5.0/libphilips_sh.so ...
Loading /mscad/apps/Linux/cadence/SPECTRE191/tools.lnx86/cmi/lib/64bit/5.0/libsparam_sh.so ...
Loading /mscad/apps/Linux/cadence/SPECTRE191/tools.lnx86/cmi/lib/64bit/5.0/libstmodels_sh.so ...
Reading file:  /home/wrkhalil/simulation/SYNC_SF_Core_testbench_schematic/spectre/schematic/netlist/input.scs
Reading file:  /mscad/apps/Linux/cadence/SPECTRE191/tools.lnx86/spectre/etc/configs/spectre.cfg
Reading file:  /mscad/foundry/MUSE_65NM/PDK/Cadence_OA/tn65cmsp018k3_1_0c/models/spectre/crn65gplus_2d5_lk_v1d0.scs
Reading file:  /mscad/foundry/MUSE_65NM/PDK/Cadence_OA/tn65cmsp018k3_1_0c/models/spectre/mosCAPrf_ahdl.va
Reading link:  /mscad/apps/Linux/cadence/SPECTRE191/tools.lnx86/spectre/etc/ahdl/discipline.h
Reading file:  /mscad/apps/Linux/cadence/SPECTRE191/tools.lnx86/spectre/etc/ahdl/disciplines.vams
Reading link:  /mscad/apps/Linux/cadence/SPECTRE191/tools.lnx86/spectre/etc/ahdl/constants.h
Reading file:  /mscad/apps/Linux/cadence/SPECTRE191/tools.lnx86/spectre/etc/ahdl/constants.vams
Reading file:  /mscad/foundry/MUSE_65NM/PDK/Cadence_OA/tn65cmsp018k3_1_0c/models/spectre/mosCap_ahdl.va
Reading file:  /home/wrkhalil/simulation/SYNC_SF_Core_testbench_schematic/spectre/schematic/netlist/_graphical_stimuli.scs
Reading file:  /home/wrkhalil/MTNCL-Stream-Processor/cadence/SYNC_Smoothing_Filter/SYNC_SF_Core_testbench_veriloga/veriloga/veriloga.va
Time for NDB Parsing: CPU = 8.30442 s, elapsed = 16.4425 s.
Time accumulated: CPU = 8.39973 s, elapsed = 16.4425 s.
Peak resident memory used = 452 Mbytes.

Created directory input.ahdlSimDB/ (775)
Created directory input.ahdlSimDB//84a0a2b851c31602eb39e3a65e06c992.SYNC_SF_Core_testbench_veriloga.ahdlcmi/ (775)
Created directory input.ahdlSimDB//84a0a2b851c31602eb39e3a65e06c992.SYNC_SF_Core_testbench_veriloga.ahdlcmi/Linux-64/ (775)
Compiling ahdlcmi module library for SYNC_SF_Core_testbench_veriloga.
Finished compilation in 8.3 s (elapsed) for SYNC_SF_Core_testbench_veriloga.
Installed compiled interface for SYNC_SF_Core_testbench_veriloga.
Time for Elaboration: CPU = 373.482 s (6m  13.5s), elapsed = 393.855 s (6m  33.9s).
Time accumulated: CPU = 381.882 s (6m  21.9s), elapsed = 410.298 s (6m  50.3s).
Peak resident memory used = 8.99 Gbytes.


Warning from spectre during hierarchy flattening.
    WARNING (SPECTRE-17101): The value 'psf' specified for the 'checklimitdest' option will no longer be supported in future releases. Use 'spectre -h' to see other recommended values for the 'checklimitdest' option.


Time for EDB Visiting: CPU = 190.056 s (3m  10.1s), elapsed = 191.737 s (3m  11.7s).
Time accumulated: CPU = 571.939 s (9m  31.9s), elapsed = 602.038 s (10m  2.0s).
Peak resident memory used = 14.8 Gbytes.


Global user options:
         psfversion = 1.4.0
            vabstol = 1e-06
            iabstol = 1e-12
               temp = 27
               gmin = 1e-12
             rforce = 1
           maxnotes = 5
           maxwarns = 5
             digits = 5
               cols = 80
             pivrel = 0.001
           sensfile = ../psf/sens.output
     checklimitdest = psf
               save = allpub
             reltol = 0.001
               tnom = 27
             scalem = 1
              scale = 1

Scoped user options:

Circuit inventory:
              nodes 1660127
             iprobe 2     
              bsim4 3221199
SYNC_SF_Core_testbench_veriloga 1     
            vsource 2     

Analysis and control statement inventory:
               info 7     
               tran 1     

Output statements:
             .probe 0     
           .measure 0     
               save 1     


Notice from spectre during initial setup.
    APS Enabled.
    Multithreading Enabled: 64 threads in the system with 128 available processors.

Time for parsing: CPU = 862.902 s (14m  22.9s), elapsed = 862.811 s (14m  22.8s).
Time accumulated: CPU = 1.43484 ks (23m  54.8s), elapsed = 1.46485 ks (24m  24.8s).
Peak resident memory used = 18.2 Gbytes.

~~~~~~~~~~~~~~~~~~~~~~
Pre-Simulation Summary
~~~~~~~~~~~~~~~~~~~~~~
~~~~~~~~~~~~~~~~~~~~~~

*************************************************
Transient Analysis `tran': time = (0 s -> 500 us)
*************************************************
Finding DC approximate solution failed with try_fast_op=yes, continue running with try_fast_op=no.
Reading file:  /home/wrkhalil/MTNCL-Stream-Processor/test/input_files_lena/image_test_64_by_64_clean
Trying `homotopy = gmin' for initial conditions.

Notice from spectre during IC analysis, during transient analysis `tran'.
    Bad pivoting is found during DC analysis. Option dc_pivot_check=yes is recommended for possible improvement of convergence.

DC simulation time: CPU = 22.2107 ks, elapsed = 1.27544 ks.

Warning from spectre during transient analysis `tran'.
    WARNING: The cm value is specified for the tran analysis fastcross option but this value is supported only by AMS-Ultra or AMS-Spectre integrated with new Front-End. The simulator uses the fastcross discrete value instead of the cm value.


Opening the PSFXL file ../psf/tran.tran.tran ...
Important parameter values:
    start = 0 s
    outputstart = 0 s
    stop = 500 us
    step = 500 ns
    maxstep = 10 us
    ic = all
    useprevic = no
    skipdc = no
    reltol = 10e-03
    abstol(V) = 1 uV
    abstol(I) = 1 pA
    temp = 27 C
    tnom = 27 C
    tempeffects = all
    errpreset = liberal
    method = trapgear2
    lteratio = 3.5
    relref = sigglobal
    cmin = 0 F
    gmin = 1 pS
    rabsshort = 1 mOhm


Output and IC/nodeset summary:
                 save   4       (current)
                 save   1660127 (voltage)

    tran: time = 10 ns         (2 m%), step = 10 ns          (2 m%)
    tran: time = 10.01 ns      (2 m%), step = 13.75 ps    (2.75 u%)
    tran: time = 10.03 ns   (2.01 m%), step = 20.63 ps    (4.13 u%)
    tran: time = 10.05 ns   (2.01 m%), step = 20.63 ps    (4.12 u%)
    tran: time = 10.06 ns   (2.01 m%), step = 8.669 ps    (1.73 u%)
    tran: time = 10.08 ns   (2.02 m%), step = 12.47 ps    (2.49 u%)
    tran: time = 10.09 ns   (2.02 m%), step = 9.852 ps    (1.97 u%)
    tran: time = 10.1 ns    (2.02 m%), step = 15.79 ps    (3.16 u%)
    tran: time = 10.12 ns   (2.02 m%), step = 13.79 ps    (2.76 u%)
    tran: time = 10.13 ns   (2.03 m%), step = 15 ps          (3 u%)
    tran: time = 10.14 ns   (2.03 m%), step = 12.73 ps    (2.55 u%)
    tran: time = 10.16 ns   (2.03 m%), step = 13.7 ps     (2.74 u%)
    tran: time = 10.16 ns   (2.03 m%), step = 6.778 ps    (1.36 u%)
    tran: time = 10.17 ns   (2.03 m%), step = 3.136 ps     (627 n%)
    tran: time = 10.17 ns   (2.03 m%), step = 4.489 ps     (898 n%)
    tran: time = 10.18 ns   (2.04 m%), step = 4.623 ps     (925 n%)
    tran: time = 10.18 ns   (2.04 m%), step = 2.265 ps     (453 n%)
    tran: time = 10.18 ns   (2.04 m%), step = 2.941 ps     (588 n%)
    tran: time = 10.18 ns   (2.04 m%), step = 3.279 ps     (656 n%)
    tran: time = 10.19 ns   (2.04 m%), step = 3.519 ps     (704 n%)
    tran: time = 10.19 ns   (2.04 m%), step = 4.389 ps     (878 n%)
    tran: time = 10.2 ns    (2.04 m%), step = 3.897 ps     (779 n%)
    tran: time = 10.2 ns    (2.04 m%), step = 3.348 ps     (670 n%)
    tran: time = 10.2 ns    (2.04 m%), step = 4.079 ps     (816 n%)
    tran: time = 10.21 ns   (2.04 m%), step = 3.243 ps     (649 n%)
    tran: time = 10.21 ns   (2.04 m%), step = 956.3 fs     (191 n%)
    tran: time = 10.21 ns   (2.04 m%), step = 1.913 ps     (383 n%)
    tran: time = 10.21 ns   (2.04 m%), step = 3.825 ps     (765 n%)
    tran: time = 10.22 ns   (2.04 m%), step = 5.746 ps    (1.15 u%)
    tran: time = 10.23 ns   (2.05 m%), step = 10.03 ps    (2.01 u%)
    tran: time = 10.24 ns   (2.05 m%), step = 7.025 ps    (1.41 u%)
    tran: time = 10.24 ns   (2.05 m%), step = 8.106 ps    (1.62 u%)
    tran: time = 10.25 ns   (2.05 m%), step = 5.83 ps     (1.17 u%)
    tran: time = 10.26 ns   (2.05 m%), step = 8.156 ps    (1.63 u%)
    tran: time = 10.26 ns   (2.05 m%), step = 4.89 ps      (978 n%)
    tran: time = 10.27 ns   (2.05 m%), step = 6.113 ps    (1.22 u%)
    tran: time = 10.27 ns   (2.05 m%), step = 3.527 ps     (705 n%)
    tran: time = 10.28 ns   (2.06 m%), step = 4.923 ps     (985 n%)
    tran: time = 10.28 ns   (2.06 m%), step = 3.605 ps     (721 n%)
    tran: time = 10.29 ns   (2.06 m%), step = 3.697 ps     (739 n%)
    tran: time = 10.29 ns   (2.06 m%), step = 2.593 ps     (519 n%)
    tran: time = 10.29 ns   (2.06 m%), step = 2.584 ps     (517 n%)
    tran: time = 10.29 ns   (2.06 m%), step = 2.578 ps     (516 n%)
    tran: time = 10.3 ns    (2.06 m%), step = 2.646 ps     (529 n%)
    tran: time = 10.3 ns    (2.06 m%), step = 1.936 ps     (387 n%)
    tran: time = 10.3 ns    (2.06 m%), step = 2.425 ps     (485 n%)
    tran: time = 10.3 ns    (2.06 m%), step = 2.243 ps     (449 n%)
    tran: time = 10.3 ns    (2.06 m%), step = 2.455 ps     (491 n%)
    tran: time = 10.31 ns   (2.06 m%), step = 2.981 ps     (596 n%)
    tran: time = 10.31 ns   (2.06 m%), step = 3.895 ps     (779 n%)
    tran: time = 10.32 ns   (2.06 m%), step = 4.695 ps     (939 n%)
    tran: time = 10.32 ns   (2.06 m%), step = 4.532 ps     (906 n%)
    tran: time = 10.32 ns   (2.06 m%), step = 2.945 ps     (589 n%)
    tran: time = 10.33 ns   (2.07 m%), step = 4.635 ps     (927 n%)
    tran: time = 10.33 ns   (2.07 m%), step = 2.936 ps     (587 n%)
    tran: time = 10.34 ns   (2.07 m%), step = 4.177 ps     (835 n%)
    tran: time = 10.34 ns   (2.07 m%), step = 4.357 ps     (871 n%)
    tran: time = 10.35 ns   (2.07 m%), step = 5.853 ps    (1.17 u%)
    tran: time = 10.35 ns   (2.07 m%), step = 8.242 ps    (1.65 u%)
    tran: time = 10.37 ns   (2.07 m%), step = 13.74 ps    (2.75 u%)
    tran: time = 10.38 ns   (2.08 m%), step = 15.58 ps    (3.12 u%)
    tran: time = 10.41 ns   (2.08 m%), step = 22.66 ps    (4.53 u%)
    tran: time = 10.44 ns   (2.09 m%), step = 29.48 ps     (5.9 u%)
    tran: time = 10.48 ns    (2.1 m%), step = 39.52 ps     (7.9 u%)
    tran: time = 10.55 ns   (2.11 m%), step = 79.04 ps    (15.8 u%)
    tran: time = 10.67 ns   (2.13 m%), step = 113.6 ps    (22.7 u%)
    tran: time = 10.85 ns   (2.17 m%), step = 180.7 ps    (36.1 u%)
    tran: time = 11.21 ns   (2.24 m%), step = 361.4 ps    (72.3 u%)
    tran: time = 11.77 ns   (2.35 m%), step = 561.1 ps     (112 u%)
    tran: time = 12.65 ns   (2.53 m%), step = 879.4 ps     (176 u%)
    tran: time = 13.89 ns   (2.78 m%), step = 1.241 ns     (248 u%)
    tran: time = 16.2 ns    (3.24 m%), step = 2.306 ns     (461 u%)
    tran: time = 19.76 ns   (3.95 m%), step = 3.566 ns     (713 u%)
    tran: time = 25.7 ns    (5.14 m%), step = 5.939 ns    (1.19 m%)
    tran: time = 35.16 ns   (7.03 m%), step = 9.463 ns    (1.89 m%)
    tran: time = 48.93 ns   (9.79 m%), step = 13.77 ns    (2.75 m%)
    tran: time = 60 ns        (12 m%), step = 11.07 ns    (2.21 m%)
    tran: time = 60.01 ns     (12 m%), step = 13.75 ps    (2.75 u%)
    tran: time = 60.03 ns     (12 m%), step = 20.63 ps    (4.12 u%)
    tran: time = 60.04 ns     (12 m%), step = 5.156 ps    (1.03 u%)
    tran: time = 60.05 ns     (12 m%), step = 7.734 ps    (1.55 u%)
    tran: time = 60.05 ns     (12 m%), step = 7.734 ps    (1.55 u%)
    tran: time = 60.06 ns     (12 m%), step = 4.238 ps     (848 n%)
    tran: time = 60.07 ns     (12 m%), step = 6.791 ps    (1.36 u%)
    tran: time = 60.07 ns     (12 m%), step = 5.663 ps    (1.13 u%)
    tran: time = 60.08 ns     (12 m%), step = 8.154 ps    (1.63 u%)
    tran: time = 60.08 ns     (12 m%), step = 4.71 ps      (942 n%)
    tran: time = 60.09 ns     (12 m%), step = 7.902 ps    (1.58 u%)
    tran: time = 60.1 ns      (12 m%), step = 6.399 ps    (1.28 u%)
    tran: time = 60.11 ns     (12 m%), step = 11.31 ps    (2.26 u%)
    tran: time = 60.12 ns     (12 m%), step = 9.382 ps    (1.88 u%)
    tran: time = 60.13 ns     (12 m%), step = 12.35 ps    (2.47 u%)
    tran: time = 60.14 ns     (12 m%), step = 11.08 ps    (2.22 u%)
    tran: time = 60.16 ns     (12 m%), step = 12.98 ps     (2.6 u%)
    tran: time = 60.17 ns     (12 m%), step = 11.85 ps    (2.37 u%)
    tran: time = 60.17 ns     (12 m%), step = 3.56 ps      (712 n%)
    tran: time = 60.18 ns     (12 m%), step = 7.119 ps    (1.42 u%)
    tran: time = 60.19 ns     (12 m%), step = 9.454 ps    (1.89 u%)
    tran: time = 60.19 ns     (12 m%), step = 5.494 ps     (1.1 u%)
    tran: time = 60.2 ns      (12 m%), step = 7.667 ps    (1.53 u%)
    tran: time = 60.21 ns     (12 m%), step = 4.589 ps     (918 n%)
    tran: time = 60.21 ns     (12 m%), step = 5.653 ps    (1.13 u%)
    tran: time = 60.22 ns     (12 m%), step = 4.418 ps     (884 n%)
    tran: time = 60.22 ns     (12 m%), step = 6.161 ps    (1.23 u%)
    tran: time = 60.23 ns     (12 m%), step = 5.038 ps    (1.01 u%)
    tran: time = 60.23 ns     (12 m%), step = 7.097 ps    (1.42 u%)
    tran: time = 60.24 ns     (12 m%), step = 8.156 ps    (1.63 u%)
    tran: time = 60.25 ns     (12 m%), step = 7.455 ps    (1.49 u%)
    tran: time = 60.26 ns   (12.1 m%), step = 5.799 ps    (1.16 u%)
    tran: time = 60.26 ns   (12.1 m%), step = 1.997 ps     (399 n%)
    tran: time = 60.26 ns   (12.1 m%), step = 998.3 fs     (200 n%)
    tran: time = 60.26 ns   (12.1 m%), step = 1.997 ps     (399 n%)
    tran: time = 60.26 ns   (12.1 m%), step = 3.291 ps     (658 n%)
    tran: time = 60.27 ns   (12.1 m%), step = 4.244 ps     (849 n%)
    tran: time = 60.27 ns   (12.1 m%), step = 4.182 ps     (836 n%)
    tran: time = 60.28 ns   (12.1 m%), step = 5.456 ps    (1.09 u%)
    tran: time = 60.28 ns   (12.1 m%), step = 7.252 ps    (1.45 u%)
    tran: time = 60.3 ns    (12.1 m%), step = 10.22 ps    (2.04 u%)
    tran: time = 60.31 ns   (12.1 m%), step = 19 ps        (3.8 u%)
    tran: time = 60.34 ns   (12.1 m%), step = 26.02 ps     (5.2 u%)
    tran: time = 60.37 ns   (12.1 m%), step = 32.56 ps    (6.51 u%)
    tran: time = 60.43 ns   (12.1 m%), step = 57.22 ps    (11.4 u%)
    tran: time = 60.52 ns   (12.1 m%), step = 87.09 ps    (17.4 u%)
    tran: time = 60.67 ns   (12.1 m%), step = 154.1 ps    (30.8 u%)
    tran: time = 60.89 ns   (12.2 m%), step = 222.2 ps    (44.4 u%)
    tran: time = 61.26 ns   (12.3 m%), step = 363.8 ps    (72.8 u%)
    tran: time = 61.79 ns   (12.4 m%), step = 531 ps       (106 u%)
    tran: time = 62.8 ns    (12.6 m%), step = 1.009 ns     (202 u%)
    tran: time = 64.33 ns   (12.9 m%), step = 1.535 ns     (307 u%)
    tran: time = 66.82 ns   (13.4 m%), step = 2.488 ns     (498 u%)
    tran: time = 70.23 ns     (14 m%), step = 3.413 ns     (683 u%)
    tran: time = 76.73 ns   (15.3 m%), step = 6.494 ns     (1.3 m%)
    tran: time = 86.98 ns   (17.4 m%), step = 10.26 ns    (2.05 m%)
    tran: time = 98.49 ns   (19.7 m%), step = 11.51 ns     (2.3 m%)
    tran: time = 110 ns       (22 m%), step = 11.51 ns     (2.3 m%)
    tran: time = 110 ns       (22 m%), step = 13.75 ps    (2.75 u%)
    tran: time = 110 ns       (22 m%), step = 5.156 ps    (1.03 u%)
    tran: time = 110 ns       (22 m%), step = 6.309 ps    (1.26 u%)
    tran: time = 110 ns       (22 m%), step = 7.553 ps    (1.51 u%)
    tran: time = 110 ns       (22 m%), step = 4.351 ps     (870 n%)
    tran: time = 110 ns       (22 m%), step = 6.612 ps    (1.32 u%)
    tran: time = 110 ns       (22 m%), step = 3.854 ps     (771 n%)
    tran: time = 110.1 ns     (22 m%), step = 3.708 ps     (742 n%)
    tran: time = 110.1 ns     (22 m%), step = 3.708 ps     (742 n%)
    tran: time = 110.1 ns     (22 m%), step = 4.717 ps     (943 n%)
    tran: time = 110.1 ns     (22 m%), step = 5.305 ps    (1.06 u%)
    tran: time = 110.1 ns     (22 m%), step = 4.472 ps     (894 n%)
    tran: time = 110.1 ns     (22 m%), step = 8.944 ps    (1.79 u%)
    tran: time = 110.1 ns     (22 m%), step = 8.803 ps    (1.76 u%)
    tran: time = 110.1 ns     (22 m%), step = 10.53 ps    (2.11 u%)
    tran: time = 110.1 ns     (22 m%), step = 9.289 ps    (1.86 u%)
    tran: time = 110.1 ns     (22 m%), step = 9.249 ps    (1.85 u%)
    tran: time = 110.1 ns     (22 m%), step = 10.13 ps    (2.03 u%)
    tran: time = 110.1 ns     (22 m%), step = 11.1 ps     (2.22 u%)
    tran: time = 110.1 ns     (22 m%), step = 12.23 ps    (2.45 u%)
    tran: time = 110.2 ns     (22 m%), step = 14.92 ps    (2.98 u%)
    tran: time = 110.2 ns     (22 m%), step = 2.466 ps     (493 n%)
    tran: time = 110.2 ns     (22 m%), step = 4.931 ps     (986 n%)
    tran: time = 110.2 ns     (22 m%), step = 5.366 ps    (1.07 u%)
    tran: time = 110.2 ns     (22 m%), step = 5.782 ps    (1.16 u%)
    tran: time = 110.2 ns     (22 m%), step = 3.687 ps     (737 n%)
    tran: time = 110.2 ns     (22 m%), step = 5.189 ps    (1.04 u%)
    tran: time = 110.2 ns     (22 m%), step = 4.638 ps     (928 n%)
    tran: time = 110.2 ns     (22 m%), step = 6.462 ps    (1.29 u%)
    tran: time = 110.2 ns     (22 m%), step = 5.743 ps    (1.15 u%)
    tran: time = 110.2 ns     (22 m%), step = 5.85 ps     (1.17 u%)
    tran: time = 110.2 ns     (22 m%), step = 4.46 ps      (892 n%)
    tran: time = 110.2 ns     (22 m%), step = 8.347 ps    (1.67 u%)
    tran: time = 110.2 ns     (22 m%), step = 5.387 ps    (1.08 u%)
    tran: time = 110.2 ns     (22 m%), step = 7.413 ps    (1.48 u%)
    tran: time = 110.2 ns     (22 m%), step = 6.198 ps    (1.24 u%)
    tran: time = 110.3 ns   (22.1 m%), step = 5.886 ps    (1.18 u%)
    tran: time = 110.3 ns   (22.1 m%), step = 4.86 ps      (972 n%)
    tran: time = 110.3 ns   (22.1 m%), step = 2.43 ps      (486 n%)
    tran: time = 110.3 ns   (22.1 m%), step = 4.86 ps      (972 n%)
    tran: time = 110.3 ns   (22.1 m%), step = 6.859 ps    (1.37 u%)
    tran: time = 110.3 ns   (22.1 m%), step = 13.72 ps    (2.74 u%)
    tran: time = 110.3 ns   (22.1 m%), step = 22.83 ps    (4.57 u%)
    tran: time = 110.3 ns   (22.1 m%), step = 31.26 ps    (6.25 u%)
    tran: time = 110.4 ns   (22.1 m%), step = 50.42 ps    (10.1 u%)
    tran: time = 110.5 ns   (22.1 m%), step = 88.32 ps    (17.7 u%)
    tran: time = 110.6 ns   (22.1 m%), step = 165.6 ps    (33.1 u%)
    tran: time = 110.9 ns   (22.2 m%), step = 254.6 ps    (50.9 u%)
    tran: time = 111.4 ns   (22.3 m%), step = 509.2 ps     (102 u%)
    tran: time = 112.3 ns   (22.5 m%), step = 926.5 ps     (185 u%)
    tran: time = 113.7 ns   (22.7 m%), step = 1.347 ns     (269 u%)
    tran: time = 115.6 ns   (23.1 m%), step = 1.908 ns     (382 u%)
    tran: time = 119.3 ns   (23.9 m%), step = 3.76 ns      (752 u%)
    tran: time = 125.7 ns   (25.1 m%), step = 6.303 ns    (1.26 m%)
    tran: time = 136 ns     (27.2 m%), step = 10.37 ns    (2.07 m%)
    tran: time = 148 ns     (29.6 m%), step = 11.99 ns     (2.4 m%)
    tran: time = 160 ns       (32 m%), step = 11.99 ns     (2.4 m%)
    tran: time = 160 ns       (32 m%), step = 13.75 ps    (2.75 u%)
    tran: time = 160 ns       (32 m%), step = 20.63 ps    (4.13 u%)
    tran: time = 160 ns       (32 m%), step = 10.31 ps    (2.06 u%)
    tran: time = 160.1 ns     (32 m%), step = 10.31 ps    (2.06 u%)
    tran: time = 160.1 ns     (32 m%), step = 4.496 ps     (899 n%)
    tran: time = 160.1 ns     (32 m%), step = 7.442 ps    (1.49 u%)
    tran: time = 160.1 ns     (32 m%), step = 6.212 ps    (1.24 u%)
    tran: time = 160.1 ns     (32 m%), step = 7.928 ps    (1.59 u%)
    tran: time = 160.1 ns     (32 m%), step = 5.922 ps    (1.18 u%)
    tran: time = 160.1 ns     (32 m%), step = 7.946 ps    (1.59 u%)
    tran: time = 160.1 ns     (32 m%), step = 7.804 ps    (1.56 u%)
    tran: time = 160.1 ns     (32 m%), step = 10.85 ps    (2.17 u%)
    tran: time = 160.1 ns     (32 m%), step = 9.367 ps    (1.87 u%)
    tran: time = 160.1 ns     (32 m%), step = 13.08 ps    (2.62 u%)
    tran: time = 160.1 ns     (32 m%), step = 11.03 ps    (2.21 u%)
    tran: time = 160.2 ns     (32 m%), step = 13.67 ps    (2.73 u%)
    tran: time = 160.2 ns     (32 m%), step = 13.45 ps    (2.69 u%)
    tran: time = 160.2 ns     (32 m%), step = 11.96 ps    (2.39 u%)
    tran: time = 160.2 ns     (32 m%), step = 2.228 ps     (446 n%)
    tran: time = 160.2 ns     (32 m%), step = 4.456 ps     (891 n%)
    tran: time = 160.2 ns     (32 m%), step = 4.043 ps     (809 n%)
    tran: time = 160.2 ns     (32 m%), step = 5.315 ps    (1.06 u%)
    tran: time = 160.2 ns     (32 m%), step = 4.227 ps     (845 n%)
    tran: time = 160.2 ns     (32 m%), step = 5.518 ps     (1.1 u%)
    tran: time = 160.2 ns     (32 m%), step = 4.536 ps     (907 n%)
    tran: time = 160.2 ns     (32 m%), step = 1.598 ps     (320 n%)
    tran: time = 160.2 ns     (32 m%), step = 3.196 ps     (639 n%)
    tran: time = 160.2 ns     (32 m%), step = 5.354 ps    (1.07 u%)
    tran: time = 160.2 ns     (32 m%), step = 9.206 ps    (1.84 u%)
    tran: time = 160.2 ns     (32 m%), step = 9.44 ps     (1.89 u%)
    tran: time = 160.3 ns   (32.1 m%), step = 8.053 ps    (1.61 u%)
    tran: time = 160.3 ns   (32.1 m%), step = 7.529 ps    (1.51 u%)
    tran: time = 160.3 ns   (32.1 m%), step = 5.521 ps     (1.1 u%)
    tran: time = 160.3 ns   (32.1 m%), step = 5.906 ps    (1.18 u%)
    tran: time = 160.3 ns   (32.1 m%), step = 1.533 ps     (307 n%)
    tran: time = 160.3 ns   (32.1 m%), step = 3.065 ps     (613 n%)
    tran: time = 160.3 ns   (32.1 m%), step = 6.13 ps     (1.23 u%)
    tran: time = 160.3 ns   (32.1 m%), step = 11.71 ps    (2.34 u%)
    tran: time = 160.3 ns   (32.1 m%), step = 21.06 ps    (4.21 u%)
    tran: time = 160.3 ns   (32.1 m%), step = 28.25 ps    (5.65 u%)
    tran: time = 160.4 ns   (32.1 m%), step = 39.86 ps    (7.97 u%)
    tran: time = 160.5 ns   (32.1 m%), step = 74.05 ps    (14.8 u%)
    tran: time = 160.6 ns   (32.1 m%), step = 140.8 ps    (28.2 u%)
    tran: time = 160.8 ns   (32.2 m%), step = 210.7 ps    (42.1 u%)
    tran: time = 161.1 ns   (32.2 m%), step = 292.8 ps    (58.6 u%)
    tran: time = 161.6 ns   (32.3 m%), step = 543.1 ps     (109 u%)
    tran: time = 162.5 ns   (32.5 m%), step = 822.1 ps     (164 u%)
    tran: time = 163.9 ns   (32.8 m%), step = 1.469 ns     (294 u%)
    tran: time = 166.1 ns   (33.2 m%), step = 2.134 ns     (427 u%)
    tran: time = 169.5 ns   (33.9 m%), step = 3.411 ns     (682 u%)
    tran: time = 174.1 ns   (34.8 m%), step = 4.623 ns     (925 u%)
    tran: time = 182.2 ns   (36.4 m%), step = 8.125 ns    (1.62 m%)
    tran: time = 192.8 ns   (38.6 m%), step = 10.57 ns    (2.11 m%)
    tran: time = 210 ns       (42 m%), step = 17.2 ns     (3.44 m%)
    tran: time = 210 ns       (42 m%), step = 13.75 ps    (2.75 u%)
    tran: time = 210 ns       (42 m%), step = 5.156 ps    (1.03 u%)
    tran: time = 210 ns       (42 m%), step = 6.472 ps    (1.29 u%)
    tran: time = 210 ns       (42 m%), step = 7.671 ps    (1.53 u%)
    tran: time = 210 ns       (42 m%), step = 4.337 ps     (867 n%)
    tran: time = 210 ns       (42 m%), step = 6.537 ps    (1.31 u%)
    tran: time = 210 ns       (42 m%), step = 4.086 ps     (817 n%)
    tran: time = 210.1 ns     (42 m%), step = 3.496 ps     (699 n%)
    tran: time = 210.1 ns     (42 m%), step = 3.496 ps     (699 n%)
    tran: time = 210.1 ns     (42 m%), step = 4.798 ps     (960 n%)
    tran: time = 210.1 ns     (42 m%), step = 5.316 ps    (1.06 u%)
    tran: time = 210.1 ns     (42 m%), step = 4.501 ps     (900 n%)
    tran: time = 210.1 ns     (42 m%), step = 9.001 ps     (1.8 u%)
    tran: time = 210.1 ns     (42 m%), step = 9.014 ps     (1.8 u%)
    tran: time = 210.1 ns     (42 m%), step = 10.79 ps    (2.16 u%)
    tran: time = 210.1 ns     (42 m%), step = 9.496 ps     (1.9 u%)
    tran: time = 210.1 ns     (42 m%), step = 9.511 ps     (1.9 u%)
    tran: time = 210.1 ns     (42 m%), step = 10.51 ps     (2.1 u%)
    tran: time = 210.1 ns     (42 m%), step = 11.56 ps    (2.31 u%)
    tran: time = 210.2 ns     (42 m%), step = 12.74 ps    (2.55 u%)
    tran: time = 210.2 ns     (42 m%), step = 13.43 ps    (2.69 u%)
    tran: time = 210.2 ns     (42 m%), step = 2.772 ps     (554 n%)
    tran: time = 210.2 ns     (42 m%), step = 5.543 ps    (1.11 u%)
    tran: time = 210.2 ns     (42 m%), step = 4.084 ps     (817 n%)
    tran: time = 210.2 ns     (42 m%), step = 5.704 ps    (1.14 u%)
    tran: time = 210.2 ns     (42 m%), step = 4.024 ps     (805 n%)
    tran: time = 210.2 ns     (42 m%), step = 6.339 ps    (1.27 u%)
    tran: time = 210.2 ns     (42 m%), step = 4.769 ps     (954 n%)
    tran: time = 210.2 ns     (42 m%), step = 5.929 ps    (1.19 u%)
    tran: time = 210.2 ns     (42 m%), step = 3.952 ps     (790 n%)
    tran: time = 210.2 ns     (42 m%), step = 5.656 ps    (1.13 u%)
    tran: time = 210.2 ns     (42 m%), step = 4.358 ps     (872 n%)
    tran: time = 210.2 ns     (42 m%), step = 8.229 ps    (1.65 u%)
    tran: time = 210.2 ns     (42 m%), step = 5.779 ps    (1.16 u%)
    tran: time = 210.2 ns     (42 m%), step = 7.555 ps    (1.51 u%)
    tran: time = 210.2 ns     (42 m%), step = 6.252 ps    (1.25 u%)
    tran: time = 210.3 ns   (42.1 m%), step = 5.893 ps    (1.18 u%)
    tran: time = 210.3 ns   (42.1 m%), step = 4.801 ps     (960 n%)
    tran: time = 210.3 ns   (42.1 m%), step = 2.369 ps     (474 n%)
    tran: time = 210.3 ns   (42.1 m%), step = 4.738 ps     (948 n%)
    tran: time = 210.3 ns   (42.1 m%), step = 6.792 ps    (1.36 u%)
    tran: time = 210.3 ns   (42.1 m%), step = 13.58 ps    (2.72 u%)
    tran: time = 210.3 ns   (42.1 m%), step = 22.74 ps    (4.55 u%)
    tran: time = 210.3 ns   (42.1 m%), step = 30.94 ps    (6.19 u%)
    tran: time = 210.4 ns   (42.1 m%), step = 49.77 ps    (9.95 u%)
    tran: time = 210.5 ns   (42.1 m%), step = 87.13 ps    (17.4 u%)
    tran: time = 210.6 ns   (42.1 m%), step = 162.5 ps    (32.5 u%)
    tran: time = 210.9 ns   (42.2 m%), step = 249.5 ps    (49.9 u%)
    tran: time = 211.4 ns   (42.3 m%), step = 499 ps      (99.8 u%)
    tran: time = 212.3 ns   (42.5 m%), step = 886 ps       (177 u%)
    tran: time = 213.6 ns   (42.7 m%), step = 1.292 ns     (258 u%)
    tran: time = 215.4 ns   (43.1 m%), step = 1.826 ns     (365 u%)
    tran: time = 218.9 ns   (43.8 m%), step = 3.533 ns     (707 u%)
    tran: time = 225.3 ns   (45.1 m%), step = 6.381 ns    (1.28 m%)
    tran: time = 235.5 ns   (47.1 m%), step = 10.17 ns    (2.03 m%)
    tran: time = 249.5 ns   (49.9 m%), step = 14.05 ns    (2.81 m%)
    tran: time = 260 ns       (52 m%), step = 10.48 ns     (2.1 m%)
    tran: time = 260 ns       (52 m%), step = 3.437 ps     (687 n%)
    tran: time = 260 ns       (52 m%), step = 6.875 ps    (1.37 u%)
    tran: time = 260 ns       (52 m%), step = 13.75 ps    (2.75 u%)
    tran: time = 260 ns       (52 m%), step = 15.47 ps    (3.09 u%)
    tran: time = 260 ns       (52 m%), step = 7.734 ps    (1.55 u%)
    tran: time = 260.1 ns     (52 m%), step = 7.734 ps    (1.55 u%)
    tran: time = 260.1 ns     (52 m%), step = 4.2 ps       (840 n%)
    tran: time = 260.1 ns     (52 m%), step = 6.593 ps    (1.32 u%)
    tran: time = 260.1 ns     (52 m%), step = 5.64 ps     (1.13 u%)
    tran: time = 260.1 ns     (52 m%), step = 8.072 ps    (1.61 u%)
    tran: time = 260.1 ns     (52 m%), step = 4.693 ps     (939 n%)
    tran: time = 260.1 ns     (52 m%), step = 8.084 ps    (1.62 u%)
    tran: time = 260.1 ns     (52 m%), step = 6.912 ps    (1.38 u%)
    tran: time = 260.1 ns     (52 m%), step = 11 ps        (2.2 u%)
    tran: time = 260.1 ns     (52 m%), step = 9.453 ps    (1.89 u%)
    tran: time = 260.1 ns     (52 m%), step = 12.52 ps     (2.5 u%)
    tran: time = 260.1 ns     (52 m%), step = 11.21 ps    (2.24 u%)
    tran: time = 260.2 ns     (52 m%), step = 13.21 ps    (2.64 u%)
    tran: time = 260.2 ns     (52 m%), step = 12.35 ps    (2.47 u%)
    tran: time = 260.2 ns     (52 m%), step = 3.605 ps     (721 n%)
    tran: time = 260.2 ns     (52 m%), step = 7.21 ps     (1.44 u%)
    tran: time = 260.2 ns     (52 m%), step = 9.266 ps    (1.85 u%)
    tran: time = 260.2 ns     (52 m%), step = 5.412 ps    (1.08 u%)
    tran: time = 260.2 ns     (52 m%), step = 7.384 ps    (1.48 u%)
    tran: time = 260.2 ns     (52 m%), step = 4.477 ps     (895 n%)
    tran: time = 260.2 ns     (52 m%), step = 5.731 ps    (1.15 u%)
    tran: time = 260.2 ns     (52 m%), step = 4.609 ps     (922 n%)
    tran: time = 260.2 ns     (52 m%), step = 1.668 ps     (334 n%)
    tran: time = 260.2 ns     (52 m%), step = 3.336 ps     (667 n%)
    tran: time = 260.2 ns     (52 m%), step = 5.269 ps    (1.05 u%)
    tran: time = 260.2 ns     (52 m%), step = 9.156 ps    (1.83 u%)
    tran: time = 260.2 ns     (52 m%), step = 9.436 ps    (1.89 u%)
    tran: time = 260.3 ns   (52.1 m%), step = 8.08 ps     (1.62 u%)
    tran: time = 260.3 ns   (52.1 m%), step = 7.567 ps    (1.51 u%)
    tran: time = 260.3 ns   (52.1 m%), step = 5.47 ps     (1.09 u%)
    tran: time = 260.3 ns   (52.1 m%), step = 5.973 ps    (1.19 u%)
    tran: time = 260.3 ns   (52.1 m%), step = 1.58 ps      (316 n%)
    tran: time = 260.3 ns   (52.1 m%), step = 3.161 ps     (632 n%)
    tran: time = 260.3 ns   (52.1 m%), step = 6.322 ps    (1.26 u%)
    tran: time = 260.3 ns   (52.1 m%), step = 11.64 ps    (2.33 u%)
    tran: time = 260.3 ns   (52.1 m%), step = 21.08 ps    (4.22 u%)
    tran: time = 260.3 ns   (52.1 m%), step = 28.35 ps    (5.67 u%)
    tran: time = 260.4 ns   (52.1 m%), step = 40.42 ps    (8.08 u%)
    tran: time = 260.5 ns   (52.1 m%), step = 69.2 ps     (13.8 u%)
    tran: time = 260.6 ns   (52.1 m%), step = 138.4 ps    (27.7 u%)
    tran: time = 260.8 ns   (52.2 m%), step = 239.8 ps      (48 u%)
    tran: time = 261.2 ns   (52.2 m%), step = 355.8 ps    (71.2 u%)
    tran: time = 261.8 ns   (52.4 m%), step = 579.6 ps     (116 u%)
    tran: time = 262.6 ns   (52.5 m%), step = 825 ps       (165 u%)
    tran: time = 264.1 ns   (52.8 m%), step = 1.52 ns      (304 u%)
    tran: time = 266.5 ns   (53.3 m%), step = 2.429 ns     (486 u%)
    tran: time = 270.7 ns   (54.1 m%), step = 4.117 ns     (823 u%)
    tran: time = 276.3 ns   (55.3 m%), step = 5.665 ns    (1.13 m%)
    tran: time = 286.2 ns   (57.2 m%), step = 9.921 ns    (1.98 m%)
    tran: time = 299.8 ns     (60 m%), step = 13.57 ns    (2.71 m%)
    tran: time = 310 ns       (62 m%), step = 10.19 ns    (2.04 m%)
    tran: time = 310 ns       (62 m%), step = 13.75 ps    (2.75 u%)
    tran: time = 310 ns       (62 m%), step = 5.156 ps    (1.03 u%)
    tran: time = 310 ns       (62 m%), step = 6.473 ps    (1.29 u%)
    tran: time = 310 ns       (62 m%), step = 7.672 ps    (1.53 u%)
    tran: time = 310 ns       (62 m%), step = 4.341 ps     (868 n%)
    tran: time = 310 ns       (62 m%), step = 6.535 ps    (1.31 u%)
    tran: time = 310 ns       (62 m%), step = 4.087 ps     (817 n%)
    tran: time = 310.1 ns     (62 m%), step = 3.493 ps     (699 n%)
    tran: time = 310.1 ns     (62 m%), step = 3.493 ps     (699 n%)
    tran: time = 310.1 ns     (62 m%), step = 4.796 ps     (959 n%)
    tran: time = 310.1 ns     (62 m%), step = 5.314 ps    (1.06 u%)
    tran: time = 310.1 ns     (62 m%), step = 4.499 ps     (900 n%)
    tran: time = 310.1 ns     (62 m%), step = 8.998 ps     (1.8 u%)
    tran: time = 310.1 ns     (62 m%), step = 9.01 ps      (1.8 u%)
    tran: time = 310.1 ns     (62 m%), step = 10.79 ps    (2.16 u%)
    tran: time = 310.1 ns     (62 m%), step = 9.495 ps     (1.9 u%)
    tran: time = 310.1 ns     (62 m%), step = 9.51 ps      (1.9 u%)
    tran: time = 310.1 ns     (62 m%), step = 10.5 ps      (2.1 u%)
    tran: time = 310.1 ns     (62 m%), step = 11.55 ps    (2.31 u%)
    tran: time = 310.2 ns     (62 m%), step = 12.73 ps    (2.55 u%)
    tran: time = 310.2 ns     (62 m%), step = 13.45 ps    (2.69 u%)
    tran: time = 310.2 ns     (62 m%), step = 2.768 ps     (554 n%)
    tran: time = 310.2 ns     (62 m%), step = 5.536 ps    (1.11 u%)
    tran: time = 310.2 ns     (62 m%), step = 4.092 ps     (818 n%)
    tran: time = 310.2 ns     (62 m%), step = 5.708 ps    (1.14 u%)
    tran: time = 310.2 ns     (62 m%), step = 4.023 ps     (805 n%)
    tran: time = 310.2 ns     (62 m%), step = 6.31 ps     (1.26 u%)
    tran: time = 310.2 ns     (62 m%), step = 4.765 ps     (953 n%)
    tran: time = 310.2 ns     (62 m%), step = 5.933 ps    (1.19 u%)
    tran: time = 310.2 ns     (62 m%), step = 3.959 ps     (792 n%)
    tran: time = 310.2 ns     (62 m%), step = 5.674 ps    (1.13 u%)
    tran: time = 310.2 ns     (62 m%), step = 4.356 ps     (871 n%)
    tran: time = 310.2 ns     (62 m%), step = 8.241 ps    (1.65 u%)
    tran: time = 310.2 ns     (62 m%), step = 5.762 ps    (1.15 u%)
    tran: time = 310.2 ns     (62 m%), step = 7.568 ps    (1.51 u%)
    tran: time = 310.2 ns     (62 m%), step = 6.244 ps    (1.25 u%)
    tran: time = 310.3 ns   (62.1 m%), step = 5.899 ps    (1.18 u%)
    tran: time = 310.3 ns   (62.1 m%), step = 4.799 ps     (960 n%)
    tran: time = 310.3 ns   (62.1 m%), step = 2.377 ps     (475 n%)
    tran: time = 310.3 ns   (62.1 m%), step = 4.754 ps     (951 n%)
    tran: time = 310.3 ns   (62.1 m%), step = 6.821 ps    (1.36 u%)
    tran: time = 310.3 ns   (62.1 m%), step = 13.64 ps    (2.73 u%)
    tran: time = 310.3 ns   (62.1 m%), step = 22.75 ps    (4.55 u%)
    tran: time = 310.3 ns   (62.1 m%), step = 30.99 ps     (6.2 u%)
    tran: time = 310.4 ns   (62.1 m%), step = 49.87 ps    (9.97 u%)
    tran: time = 310.5 ns   (62.1 m%), step = 87.12 ps    (17.4 u%)
    tran: time = 310.6 ns   (62.1 m%), step = 163.1 ps    (32.6 u%)
    tran: time = 310.9 ns   (62.2 m%), step = 250.6 ps    (50.1 u%)
    tran: time = 311.4 ns   (62.3 m%), step = 501.2 ps     (100 u%)
    tran: time = 312.3 ns   (62.5 m%), step = 888.9 ps     (178 u%)
    tran: time = 313.6 ns   (62.7 m%), step = 1.29 ns      (258 u%)
    tran: time = 315.4 ns   (63.1 m%), step = 1.806 ns     (361 u%)
    tran: time = 318.9 ns   (63.8 m%), step = 3.535 ns     (707 u%)
    tran: time = 325.3 ns   (65.1 m%), step = 6.39 ns     (1.28 m%)
    tran: time = 335.5 ns   (67.1 m%), step = 10.17 ns    (2.03 m%)
    tran: time = 349.5 ns   (69.9 m%), step = 14.02 ns     (2.8 m%)
    tran: time = 360 ns       (72 m%), step = 10.51 ns     (2.1 m%)
    tran: time = 360 ns       (72 m%), step = 13.75 ps    (2.75 u%)
    tran: time = 360 ns       (72 m%), step = 20.63 ps    (4.13 u%)
    tran: time = 360 ns       (72 m%), step = 10.31 ps    (2.06 u%)
    tran: time = 360.1 ns     (72 m%), step = 10.31 ps    (2.06 u%)
    tran: time = 360.1 ns     (72 m%), step = 4.499 ps     (900 n%)
    tran: time = 360.1 ns     (72 m%), step = 7.332 ps    (1.47 u%)
    tran: time = 360.1 ns     (72 m%), step = 6.181 ps    (1.24 u%)
    tran: time = 360.1 ns     (72 m%), step = 7.522 ps     (1.5 u%)
    tran: time = 360.1 ns     (72 m%), step = 5.866 ps    (1.17 u%)
    tran: time = 360.1 ns     (72 m%), step = 7.64 ps     (1.53 u%)
    tran: time = 360.1 ns     (72 m%), step = 7.916 ps    (1.58 u%)
    tran: time = 360.1 ns     (72 m%), step = 10.85 ps    (2.17 u%)
    tran: time = 360.1 ns     (72 m%), step = 9.248 ps    (1.85 u%)
    tran: time = 360.1 ns     (72 m%), step = 12.86 ps    (2.57 u%)
    tran: time = 360.1 ns     (72 m%), step = 10.92 ps    (2.18 u%)
    tran: time = 360.2 ns     (72 m%), step = 13.5 ps      (2.7 u%)
    tran: time = 360.2 ns     (72 m%), step = 13.17 ps    (2.63 u%)
    tran: time = 360.2 ns     (72 m%), step = 12.31 ps    (2.46 u%)
    tran: time = 360.2 ns     (72 m%), step = 2.479 ps     (496 n%)
    tran: time = 360.2 ns     (72 m%), step = 4.958 ps     (992 n%)
    tran: time = 360.2 ns     (72 m%), step = 4.241 ps     (848 n%)
    tran: time = 360.2 ns     (72 m%), step = 5.498 ps     (1.1 u%)
    tran: time = 360.2 ns     (72 m%), step = 4.206 ps     (841 n%)
    tran: time = 360.2 ns     (72 m%), step = 5.589 ps    (1.12 u%)
    tran: time = 360.2 ns     (72 m%), step = 4.554 ps     (911 n%)
    tran: time = 360.2 ns     (72 m%), step = 1.587 ps     (317 n%)
    tran: time = 360.2 ns     (72 m%), step = 3.174 ps     (635 n%)
    tran: time = 360.2 ns     (72 m%), step = 5.349 ps    (1.07 u%)
    tran: time = 360.2 ns     (72 m%), step = 9.465 ps    (1.89 u%)
    tran: time = 360.2 ns     (72 m%), step = 9.495 ps     (1.9 u%)
    tran: time = 360.3 ns   (72.1 m%), step = 7.911 ps    (1.58 u%)
    tran: time = 360.3 ns   (72.1 m%), step = 7.616 ps    (1.52 u%)
    tran: time = 360.3 ns   (72.1 m%), step = 5.434 ps    (1.09 u%)
    tran: time = 360.3 ns   (72.1 m%), step = 5.896 ps    (1.18 u%)
    tran: time = 360.3 ns   (72.1 m%), step = 1.501 ps     (300 n%)
    tran: time = 360.3 ns   (72.1 m%), step = 3.001 ps     (600 n%)
    tran: time = 360.3 ns   (72.1 m%), step = 6.002 ps     (1.2 u%)
    tran: time = 360.3 ns   (72.1 m%), step = 11.72 ps    (2.34 u%)
    tran: time = 360.3 ns   (72.1 m%), step = 20.9 ps     (4.18 u%)
    tran: time = 360.3 ns   (72.1 m%), step = 28.13 ps    (5.63 u%)
    tran: time = 360.4 ns   (72.1 m%), step = 39.5 ps      (7.9 u%)
    tran: time = 360.5 ns   (72.1 m%), step = 67.96 ps    (13.6 u%)
    tran: time = 360.6 ns   (72.1 m%), step = 135.9 ps    (27.2 u%)
    tran: time = 360.8 ns   (72.2 m%), step = 225.5 ps    (45.1 u%)
    tran: time = 361.1 ns   (72.2 m%), step = 330.5 ps    (66.1 u%)
    tran: time = 361.7 ns   (72.3 m%), step = 551.5 ps     (110 u%)
    tran: time = 362.5 ns   (72.5 m%), step = 800.3 ps     (160 u%)
    tran: time = 363.9 ns   (72.8 m%), step = 1.395 ns     (279 u%)
    tran: time = 366.2 ns   (73.2 m%), step = 2.288 ns     (458 u%)
    tran: time = 370 ns       (74 m%), step = 3.826 ns     (765 u%)
    tran: time = 375.3 ns   (75.1 m%), step = 5.336 ns    (1.07 m%)
    tran: time = 384.7 ns   (76.9 m%), step = 9.382 ns    (1.88 m%)
    tran: time = 397.3 ns   (79.5 m%), step = 12.57 ns    (2.51 m%)
    tran: time = 410 ns       (82 m%), step = 12.71 ns    (2.54 m%)
    tran: time = 410 ns       (82 m%), step = 13.75 ps    (2.75 u%)
    tran: time = 410 ns       (82 m%), step = 5.156 ps    (1.03 u%)
    tran: time = 410 ns       (82 m%), step = 6.472 ps    (1.29 u%)
    tran: time = 410 ns       (82 m%), step = 7.671 ps    (1.53 u%)
    tran: time = 410 ns       (82 m%), step = 4.341 ps     (868 n%)
    tran: time = 410 ns       (82 m%), step = 6.535 ps    (1.31 u%)
    tran: time = 410 ns       (82 m%), step = 4.087 ps     (817 n%)
    tran: time = 410.1 ns     (82 m%), step = 3.494 ps     (699 n%)
    tran: time = 410.1 ns     (82 m%), step = 3.494 ps     (699 n%)
    tran: time = 410.1 ns     (82 m%), step = 4.797 ps     (959 n%)
    tran: time = 410.1 ns     (82 m%), step = 5.315 ps    (1.06 u%)
    tran: time = 410.1 ns     (82 m%), step = 4.499 ps     (900 n%)
    tran: time = 410.1 ns     (82 m%), step = 8.999 ps     (1.8 u%)
    tran: time = 410.1 ns     (82 m%), step = 9.011 ps     (1.8 u%)
    tran: time = 410.1 ns     (82 m%), step = 10.79 ps    (2.16 u%)
    tran: time = 410.1 ns     (82 m%), step = 9.495 ps     (1.9 u%)
    tran: time = 410.1 ns     (82 m%), step = 9.51 ps      (1.9 u%)
    tran: time = 410.1 ns     (82 m%), step = 10.5 ps      (2.1 u%)
    tran: time = 410.1 ns     (82 m%), step = 11.55 ps    (2.31 u%)
    tran: time = 410.2 ns     (82 m%), step = 12.73 ps    (2.55 u%)
    tran: time = 410.2 ns     (82 m%), step = 13.45 ps    (2.69 u%)
    tran: time = 410.2 ns     (82 m%), step = 2.769 ps     (554 n%)
    tran: time = 410.2 ns     (82 m%), step = 5.538 ps    (1.11 u%)
    tran: time = 410.2 ns     (82 m%), step = 4.092 ps     (818 n%)
    tran: time = 410.2 ns     (82 m%), step = 5.708 ps    (1.14 u%)
    tran: time = 410.2 ns     (82 m%), step = 4.023 ps     (805 n%)
    tran: time = 410.2 ns     (82 m%), step = 6.32 ps     (1.26 u%)
    tran: time = 410.2 ns     (82 m%), step = 4.766 ps     (953 n%)
    tran: time = 410.2 ns     (82 m%), step = 5.931 ps    (1.19 u%)
    tran: time = 410.2 ns     (82 m%), step = 3.958 ps     (792 n%)
    tran: time = 410.2 ns     (82 m%), step = 5.67 ps     (1.13 u%)
    tran: time = 410.2 ns     (82 m%), step = 4.357 ps     (871 n%)
    tran: time = 410.2 ns     (82 m%), step = 8.237 ps    (1.65 u%)
    tran: time = 410.2 ns     (82 m%), step = 5.771 ps    (1.15 u%)
    tran: time = 410.2 ns     (82 m%), step = 7.56 ps     (1.51 u%)
    tran: time = 410.2 ns     (82 m%), step = 6.25 ps     (1.25 u%)
    tran: time = 410.3 ns   (82.1 m%), step = 5.895 ps    (1.18 u%)
    tran: time = 410.3 ns   (82.1 m%), step = 4.801 ps     (960 n%)
    tran: time = 410.3 ns   (82.1 m%), step = 2.372 ps     (474 n%)
    tran: time = 410.3 ns   (82.1 m%), step = 4.744 ps     (949 n%)
    tran: time = 410.3 ns   (82.1 m%), step = 6.819 ps    (1.36 u%)
    tran: time = 410.3 ns   (82.1 m%), step = 13.64 ps    (2.73 u%)
    tran: time = 410.3 ns   (82.1 m%), step = 22.76 ps    (4.55 u%)
    tran: time = 410.3 ns   (82.1 m%), step = 30.98 ps     (6.2 u%)
    tran: time = 410.4 ns   (82.1 m%), step = 49.85 ps    (9.97 u%)
    tran: time = 410.5 ns   (82.1 m%), step = 87.38 ps    (17.5 u%)
    tran: time = 410.6 ns   (82.1 m%), step = 163 ps      (32.6 u%)
    tran: time = 410.9 ns   (82.2 m%), step = 250.2 ps      (50 u%)
    tran: time = 411.4 ns   (82.3 m%), step = 500.5 ps     (100 u%)
    tran: time = 412.3 ns   (82.5 m%), step = 887 ps       (177 u%)
    tran: time = 413.6 ns   (82.7 m%), step = 1.287 ns     (257 u%)
    tran: time = 415.4 ns   (83.1 m%), step = 1.801 ns     (360 u%)
    tran: time = 418.9 ns   (83.8 m%), step = 3.521 ns     (704 u%)
    tran: time = 425.3 ns   (85.1 m%), step = 6.38 ns     (1.28 m%)
    tran: time = 435.4 ns   (87.1 m%), step = 10.15 ns    (2.03 m%)
    tran: time = 449.4 ns   (89.9 m%), step = 13.99 ns     (2.8 m%)
    tran: time = 460 ns       (92 m%), step = 10.6 ns     (2.12 m%)
    tran: time = 460 ns       (92 m%), step = 13.75 ps    (2.75 u%)
    tran: time = 460 ns       (92 m%), step = 20.63 ps    (4.13 u%)
    tran: time = 460 ns       (92 m%), step = 10.31 ps    (2.06 u%)
    tran: time = 460.1 ns     (92 m%), step = 10.31 ps    (2.06 u%)
    tran: time = 460.1 ns     (92 m%), step = 4.508 ps     (902 n%)
    tran: time = 460.1 ns     (92 m%), step = 7.359 ps    (1.47 u%)
    tran: time = 460.1 ns     (92 m%), step = 6.295 ps    (1.26 u%)
    tran: time = 460.1 ns     (92 m%), step = 7.767 ps    (1.55 u%)
    tran: time = 460.1 ns     (92 m%), step = 5.79 ps     (1.16 u%)
    tran: time = 460.1 ns     (92 m%), step = 8.255 ps    (1.65 u%)
    tran: time = 460.1 ns     (92 m%), step = 6.64 ps     (1.33 u%)
    tran: time = 460.1 ns     (92 m%), step = 12.67 ps    (2.53 u%)
    tran: time = 460.1 ns     (92 m%), step = 9.613 ps    (1.92 u%)
    tran: time = 460.1 ns     (92 m%), step = 13.58 ps    (2.72 u%)
    tran: time = 460.1 ns     (92 m%), step = 11.22 ps    (2.24 u%)
    tran: time = 460.2 ns     (92 m%), step = 14.1 ps     (2.82 u%)
    tran: time = 460.2 ns     (92 m%), step = 3.475 ps     (695 n%)
    tran: time = 460.2 ns     (92 m%), step = 6.949 ps    (1.39 u%)
    tran: time = 460.2 ns     (92 m%), step = 8.262 ps    (1.65 u%)
    tran: time = 460.2 ns     (92 m%), step = 9.353 ps    (1.87 u%)
    tran: time = 460.2 ns     (92 m%), step = 5.715 ps    (1.14 u%)
    tran: time = 460.2 ns     (92 m%), step = 7.197 ps    (1.44 u%)
    tran: time = 460.2 ns     (92 m%), step = 4.478 ps     (896 n%)
    tran: time = 460.2 ns     (92 m%), step = 5.747 ps    (1.15 u%)
    tran: time = 460.2 ns     (92 m%), step = 5.329 ps    (1.07 u%)
    tran: time = 460.2 ns     (92 m%), step = 1.765 ps     (353 n%)
    tran: time = 460.2 ns     (92 m%), step = 3.53 ps      (706 n%)
    tran: time = 460.2 ns     (92 m%), step = 5.629 ps    (1.13 u%)
    tran: time = 460.2 ns     (92 m%), step = 7.699 ps    (1.54 u%)
    tran: time = 460.2 ns     (92 m%), step = 7.648 ps    (1.53 u%)
    tran: time = 460.3 ns   (92.1 m%), step = 7.028 ps    (1.41 u%)
    tran: time = 460.3 ns   (92.1 m%), step = 1.739 ps     (348 n%)
    tran: time = 460.3 ns   (92.1 m%), step = 3.478 ps     (696 n%)
    tran: time = 460.3 ns   (92.1 m%), step = 5.143 ps    (1.03 u%)
    tran: time = 460.3 ns   (92.1 m%), step = 3.973 ps     (795 n%)
    tran: time = 460.3 ns   (92.1 m%), step = 1.987 ps     (397 n%)
    tran: time = 460.3 ns   (92.1 m%), step = 3.973 ps     (795 n%)
    tran: time = 460.3 ns   (92.1 m%), step = 5.416 ps    (1.08 u%)
    tran: time = 460.3 ns   (92.1 m%), step = 10.83 ps    (2.17 u%)
    tran: time = 460.3 ns   (92.1 m%), step = 18.08 ps    (3.62 u%)
    tran: time = 460.3 ns   (92.1 m%), step = 23.15 ps    (4.63 u%)
    tran: time = 460.4 ns   (92.1 m%), step = 33.49 ps     (6.7 u%)
    tran: time = 460.4 ns   (92.1 m%), step = 59.26 ps    (11.9 u%)
    tran: time = 460.5 ns   (92.1 m%), step = 103.3 ps    (20.7 u%)
    tran: time = 460.7 ns   (92.1 m%), step = 206.7 ps    (41.3 u%)
    tran: time = 461.1 ns   (92.2 m%), step = 346.4 ps    (69.3 u%)
    tran: time = 461.6 ns   (92.3 m%), step = 503 ps       (101 u%)
    tran: time = 462.4 ns   (92.5 m%), step = 822.6 ps     (165 u%)
    tran: time = 463.6 ns   (92.7 m%), step = 1.198 ns     (240 u%)
    tran: time = 465.8 ns   (93.2 m%), step = 2.15 ns      (430 u%)
    tran: time = 469.2 ns   (93.8 m%), step = 3.485 ns     (697 u%)
    tran: time = 475 ns       (95 m%), step = 5.78 ns     (1.16 m%)
    tran: time = 482.8 ns   (96.6 m%), step = 7.827 ns    (1.57 m%)
    tran: time = 497.1 ns   (99.4 m%), step = 14.3 ns     (2.86 m%)
    tran: time = 510 ns      (102 m%), step = 12.85 ns    (2.57 m%)
    tran: time = 510 ns      (102 m%), step = 13.75 ps    (2.75 u%)
    tran: time = 510 ns      (102 m%), step = 5.156 ps    (1.03 u%)
    tran: time = 510 ns      (102 m%), step = 6.472 ps    (1.29 u%)
    tran: time = 510 ns      (102 m%), step = 7.672 ps    (1.53 u%)
    tran: time = 510 ns      (102 m%), step = 4.342 ps     (868 n%)
    tran: time = 510 ns      (102 m%), step = 6.535 ps    (1.31 u%)
    tran: time = 510 ns      (102 m%), step = 4.087 ps     (817 n%)
    tran: time = 510.1 ns    (102 m%), step = 3.493 ps     (699 n%)
    tran: time = 510.1 ns    (102 m%), step = 3.493 ps     (699 n%)
    tran: time = 510.1 ns    (102 m%), step = 4.796 ps     (959 n%)
    tran: time = 510.1 ns    (102 m%), step = 5.314 ps    (1.06 u%)
    tran: time = 510.1 ns    (102 m%), step = 4.499 ps     (900 n%)
    tran: time = 510.1 ns    (102 m%), step = 8.998 ps     (1.8 u%)
    tran: time = 510.1 ns    (102 m%), step = 9.01 ps      (1.8 u%)
    tran: time = 510.1 ns    (102 m%), step = 10.79 ps    (2.16 u%)
    tran: time = 510.1 ns    (102 m%), step = 9.495 ps     (1.9 u%)
    tran: time = 510.1 ns    (102 m%), step = 9.51 ps      (1.9 u%)
    tran: time = 510.1 ns    (102 m%), step = 10.5 ps      (2.1 u%)
    tran: time = 510.1 ns    (102 m%), step = 11.55 ps    (2.31 u%)
    tran: time = 510.2 ns    (102 m%), step = 12.73 ps    (2.55 u%)
    tran: time = 510.2 ns    (102 m%), step = 13.45 ps    (2.69 u%)
    tran: time = 510.2 ns    (102 m%), step = 2.768 ps     (554 n%)
    tran: time = 510.2 ns    (102 m%), step = 5.537 ps    (1.11 u%)
    tran: time = 510.2 ns    (102 m%), step = 4.094 ps     (819 n%)
    tran: time = 510.2 ns    (102 m%), step = 5.708 ps    (1.14 u%)
    tran: time = 510.2 ns    (102 m%), step = 4.022 ps     (804 n%)
    tran: time = 510.2 ns    (102 m%), step = 6.317 ps    (1.26 u%)
    tran: time = 510.2 ns    (102 m%), step = 4.766 ps     (953 n%)
    tran: time = 510.2 ns    (102 m%), step = 5.932 ps    (1.19 u%)
    tran: time = 510.2 ns    (102 m%), step = 3.955 ps     (791 n%)
    tran: time = 510.2 ns    (102 m%), step = 5.665 ps    (1.13 u%)
    tran: time = 510.2 ns    (102 m%), step = 4.356 ps     (871 n%)
    tran: time = 510.2 ns    (102 m%), step = 8.238 ps    (1.65 u%)
    tran: time = 510.2 ns    (102 m%), step = 5.764 ps    (1.15 u%)
    tran: time = 510.2 ns    (102 m%), step = 7.571 ps    (1.51 u%)
    tran: time = 510.2 ns    (102 m%), step = 6.242 ps    (1.25 u%)
    tran: time = 510.3 ns    (102 m%), step = 5.901 ps    (1.18 u%)
    tran: time = 510.3 ns    (102 m%), step = 4.799 ps     (960 n%)
    tran: time = 510.3 ns    (102 m%), step = 2.378 ps     (476 n%)
    tran: time = 510.3 ns    (102 m%), step = 4.757 ps     (951 n%)
    tran: time = 510.3 ns    (102 m%), step = 6.822 ps    (1.36 u%)
    tran: time = 510.3 ns    (102 m%), step = 13.64 ps    (2.73 u%)
    tran: time = 510.3 ns    (102 m%), step = 22.75 ps    (4.55 u%)
    tran: time = 510.3 ns    (102 m%), step = 30.99 ps     (6.2 u%)
    tran: time = 510.4 ns    (102 m%), step = 49.88 ps    (9.98 u%)
    tran: time = 510.5 ns    (102 m%), step = 87.14 ps    (17.4 u%)
    tran: time = 510.6 ns    (102 m%), step = 163.2 ps    (32.6 u%)
    tran: time = 510.9 ns    (102 m%), step = 250.7 ps    (50.1 u%)
    tran: time = 511.4 ns    (102 m%), step = 501.3 ps     (100 u%)
    tran: time = 512.3 ns    (102 m%), step = 874.4 ps     (175 u%)
    tran: time = 513.5 ns    (103 m%), step = 1.274 ns     (255 u%)
    tran: time = 515.3 ns    (103 m%), step = 1.785 ns     (357 u%)
    tran: time = 518.8 ns    (104 m%), step = 3.498 ns     (700 u%)
    tran: time = 525.2 ns    (105 m%), step = 6.348 ns    (1.27 m%)
    tran: time = 535 ns      (107 m%), step = 9.848 ns    (1.97 m%)
    tran: time = 547.5 ns    (110 m%), step = 12.49 ns     (2.5 m%)
    tran: time = 560 ns      (112 m%), step = 12.49 ns     (2.5 m%)
    tran: time = 560 ns      (112 m%), step = 13.75 ps    (2.75 u%)
    tran: time = 560 ns      (112 m%), step = 20.63 ps    (4.12 u%)
    tran: time = 560 ns      (112 m%), step = 10.31 ps    (2.06 u%)
    tran: time = 560.1 ns    (112 m%), step = 10.31 ps    (2.06 u%)
    tran: time = 560.1 ns    (112 m%), step = 4.497 ps     (899 n%)
    tran: time = 560.1 ns    (112 m%), step = 7.441 ps    (1.49 u%)
    tran: time = 560.1 ns    (112 m%), step = 6.39 ps     (1.28 u%)
    tran: time = 560.1 ns    (112 m%), step = 7.275 ps    (1.46 u%)
    tran: time = 560.1 ns    (112 m%), step = 5.968 ps    (1.19 u%)
    tran: time = 560.1 ns    (112 m%), step = 7.658 ps    (1.53 u%)
    tran: time = 560.1 ns    (112 m%), step = 8.033 ps    (1.61 u%)
    tran: time = 560.1 ns    (112 m%), step = 11.02 ps     (2.2 u%)
    tran: time = 560.1 ns    (112 m%), step = 9.296 ps    (1.86 u%)
    tran: time = 560.1 ns    (112 m%), step = 13.02 ps     (2.6 u%)
    tran: time = 560.1 ns    (112 m%), step = 10.97 ps    (2.19 u%)
    tran: time = 560.2 ns    (112 m%), step = 13.63 ps    (2.73 u%)
    tran: time = 560.2 ns    (112 m%), step = 13.38 ps    (2.68 u%)
    tran: time = 560.2 ns    (112 m%), step = 12.06 ps    (2.41 u%)
    tran: time = 560.2 ns    (112 m%), step = 9.233 ps    (1.85 u%)
    tran: time = 560.2 ns    (112 m%), step = 8.621 ps    (1.72 u%)
    tran: time = 560.2 ns    (112 m%), step = 5.064 ps    (1.01 u%)
    tran: time = 560.2 ns    (112 m%), step = 6.701 ps    (1.34 u%)
    tran: time = 560.2 ns    (112 m%), step = 5.114 ps    (1.02 u%)
    tran: time = 560.2 ns    (112 m%), step = 2.151 ps     (430 n%)
    tran: time = 560.2 ns    (112 m%), step = 4.303 ps     (861 n%)
    tran: time = 560.2 ns    (112 m%), step = 5.96 ps     (1.19 u%)
    tran: time = 560.2 ns    (112 m%), step = 7.698 ps    (1.54 u%)
    tran: time = 560.2 ns    (112 m%), step = 7.243 ps    (1.45 u%)
    tran: time = 560.3 ns    (112 m%), step = 6.264 ps    (1.25 u%)
    tran: time = 560.3 ns    (112 m%), step = 7.321 ps    (1.46 u%)
    tran: time = 560.3 ns    (112 m%), step = 4.829 ps     (966 n%)
    tran: time = 560.3 ns    (112 m%), step = 5.608 ps    (1.12 u%)
    tran: time = 560.3 ns    (112 m%), step = 1.501 ps     (300 n%)
    tran: time = 560.3 ns    (112 m%), step = 3.001 ps     (600 n%)
    tran: time = 560.3 ns    (112 m%), step = 6.003 ps     (1.2 u%)
    tran: time = 560.3 ns    (112 m%), step = 11.01 ps     (2.2 u%)
    tran: time = 560.3 ns    (112 m%), step = 20.57 ps    (4.11 u%)
    tran: time = 560.3 ns    (112 m%), step = 27.16 ps    (5.43 u%)
    tran: time = 560.4 ns    (112 m%), step = 37.65 ps    (7.53 u%)
    tran: time = 560.4 ns    (112 m%), step = 63.85 ps    (12.8 u%)
    tran: time = 560.6 ns    (112 m%), step = 127.7 ps    (25.5 u%)
    tran: time = 560.8 ns    (112 m%), step = 213.4 ps    (42.7 u%)
    tran: time = 561.1 ns    (112 m%), step = 313.8 ps    (62.8 u%)
    tran: time = 561.6 ns    (112 m%), step = 521.4 ps     (104 u%)
    tran: time = 562.4 ns    (112 m%), step = 754.2 ps     (151 u%)
    tran: time = 563.8 ns    (113 m%), step = 1.377 ns     (275 u%)
    tran: time = 565.9 ns    (113 m%), step = 2.187 ns     (437 u%)
    tran: time = 569.6 ns    (114 m%), step = 3.645 ns     (729 u%)
    tran: time = 574.7 ns    (115 m%), step = 5.084 ns    (1.02 m%)
    tran: time = 583.7 ns    (117 m%), step = 9.002 ns     (1.8 m%)
    tran: time = 595.5 ns    (119 m%), step = 11.88 ns    (2.38 m%)
    tran: time = 610 ns      (122 m%), step = 14.45 ns    (2.89 m%)
    tran: time = 610 ns      (122 m%), step = 13.75 ps    (2.75 u%)
    tran: time = 610 ns      (122 m%), step = 5.156 ps    (1.03 u%)
    tran: time = 610 ns      (122 m%), step = 6.471 ps    (1.29 u%)
    tran: time = 610 ns      (122 m%), step = 7.671 ps    (1.53 u%)
    tran: time = 610 ns      (122 m%), step = 4.342 ps     (868 n%)
    tran: time = 610 ns      (122 m%), step = 6.536 ps    (1.31 u%)
    tran: time = 610 ns      (122 m%), step = 4.087 ps     (817 n%)
    tran: time = 610.1 ns    (122 m%), step = 3.494 ps     (699 n%)
    tran: time = 610.1 ns    (122 m%), step = 3.494 ps     (699 n%)
    tran: time = 610.1 ns    (122 m%), step = 4.797 ps     (959 n%)
    tran: time = 610.1 ns    (122 m%), step = 5.315 ps    (1.06 u%)
    tran: time = 610.1 ns    (122 m%), step = 4.499 ps     (900 n%)
    tran: time = 610.1 ns    (122 m%), step = 8.999 ps     (1.8 u%)
    tran: time = 610.1 ns    (122 m%), step = 9.011 ps     (1.8 u%)
    tran: time = 610.1 ns    (122 m%), step = 10.79 ps    (2.16 u%)
    tran: time = 610.1 ns    (122 m%), step = 9.495 ps     (1.9 u%)
    tran: time = 610.1 ns    (122 m%), step = 9.51 ps      (1.9 u%)
    tran: time = 610.1 ns    (122 m%), step = 10.5 ps      (2.1 u%)
    tran: time = 610.1 ns    (122 m%), step = 11.55 ps    (2.31 u%)
    tran: time = 610.2 ns    (122 m%), step = 12.73 ps    (2.55 u%)
    tran: time = 610.2 ns    (122 m%), step = 13.45 ps    (2.69 u%)
    tran: time = 610.2 ns    (122 m%), step = 2.769 ps     (554 n%)
    tran: time = 610.2 ns    (122 m%), step = 5.537 ps    (1.11 u%)
    tran: time = 610.2 ns    (122 m%), step = 4.092 ps     (818 n%)
    tran: time = 610.2 ns    (122 m%), step = 5.707 ps    (1.14 u%)
    tran: time = 610.2 ns    (122 m%), step = 4.023 ps     (805 n%)
    tran: time = 610.2 ns    (122 m%), step = 6.32 ps     (1.26 u%)
    tran: time = 610.2 ns    (122 m%), step = 4.767 ps     (953 n%)
    tran: time = 610.2 ns    (122 m%), step = 5.894 ps    (1.18 u%)
    tran: time = 610.2 ns    (122 m%), step = 3.849 ps     (770 n%)
    tran: time = 610.2 ns    (122 m%), step = 5.574 ps    (1.11 u%)
    tran: time = 610.2 ns    (122 m%), step = 4.319 ps     (864 n%)
    tran: time = 610.2 ns    (122 m%), step = 8.262 ps    (1.65 u%)
    tran: time = 610.2 ns    (122 m%), step = 5.616 ps    (1.12 u%)
    tran: time = 610.2 ns    (122 m%), step = 7.709 ps    (1.54 u%)
    tran: time = 610.2 ns    (122 m%), step = 1.522 ps     (304 n%)
    tran: time = 610.2 ns    (122 m%), step = 3.044 ps     (609 n%)
    tran: time = 610.2 ns    (122 m%), step = 4.198 ps     (840 n%)
    tran: time = 610.3 ns    (122 m%), step = 3.891 ps     (778 n%)
    tran: time = 610.3 ns    (122 m%), step = 4.322 ps     (864 n%)
    tran: time = 610.3 ns    (122 m%), step = 5.487 ps     (1.1 u%)
    tran: time = 610.3 ns    (122 m%), step = 7.571 ps    (1.51 u%)
    tran: time = 610.3 ns    (122 m%), step = 10.59 ps    (2.12 u%)
    tran: time = 610.3 ns    (122 m%), step = 20.74 ps    (4.15 u%)
    tran: time = 610.3 ns    (122 m%), step = 27.88 ps    (5.58 u%)
    tran: time = 610.4 ns    (122 m%), step = 46.75 ps    (9.35 u%)
    tran: time = 610.5 ns    (122 m%), step = 75.54 ps    (15.1 u%)
    tran: time = 610.6 ns    (122 m%), step = 149.3 ps    (29.9 u%)
    tran: time = 610.9 ns    (122 m%), step = 276.2 ps    (55.2 u%)
    tran: time = 611.3 ns    (122 m%), step = 432.9 ps    (86.6 u%)
    tran: time = 612.2 ns    (122 m%), step = 858.4 ps     (172 u%)
    tran: time = 613.4 ns    (123 m%), step = 1.217 ns     (243 u%)
    tran: time = 615.3 ns    (123 m%), step = 1.918 ns     (384 u%)
    tran: time = 618.1 ns    (124 m%), step = 2.821 ns     (564 u%)
    tran: time = 623.8 ns    (125 m%), step = 5.643 ns    (1.13 m%)
    tran: time = 633 ns      (127 m%), step = 9.234 ns    (1.85 m%)
    tran: time = 647.7 ns    (130 m%), step = 14.7 ns     (2.94 m%)
    tran: time = 660 ns      (132 m%), step = 12.3 ns     (2.46 m%)
    tran: time = 660 ns      (132 m%), step = 13.75 ps    (2.75 u%)
    tran: time = 660 ns      (132 m%), step = 20.63 ps    (4.13 u%)
    tran: time = 660 ns      (132 m%), step = 10.31 ps    (2.06 u%)
    tran: time = 660.1 ns    (132 m%), step = 10.31 ps    (2.06 u%)
    tran: time = 660.1 ns    (132 m%), step = 4.496 ps     (899 n%)
    tran: time = 660.1 ns    (132 m%), step = 7.442 ps    (1.49 u%)
    tran: time = 660.1 ns    (132 m%), step = 6.215 ps    (1.24 u%)
    tran: time = 660.1 ns    (132 m%), step = 7.931 ps    (1.59 u%)
    tran: time = 660.1 ns    (132 m%), step = 5.92 ps     (1.18 u%)
    tran: time = 660.1 ns    (132 m%), step = 7.952 ps    (1.59 u%)
    tran: time = 660.1 ns    (132 m%), step = 7.799 ps    (1.56 u%)
    tran: time = 660.1 ns    (132 m%), step = 10.84 ps    (2.17 u%)
    tran: time = 660.1 ns    (132 m%), step = 9.367 ps    (1.87 u%)
    tran: time = 660.1 ns    (132 m%), step = 13.08 ps    (2.62 u%)
    tran: time = 660.1 ns    (132 m%), step = 11.03 ps    (2.21 u%)
    tran: time = 660.2 ns    (132 m%), step = 13.67 ps    (2.73 u%)
    tran: time = 660.2 ns    (132 m%), step = 13.45 ps    (2.69 u%)
    tran: time = 660.2 ns    (132 m%), step = 11.96 ps    (2.39 u%)
    tran: time = 660.2 ns    (132 m%), step = 2.231 ps     (446 n%)
    tran: time = 660.2 ns    (132 m%), step = 4.463 ps     (893 n%)
    tran: time = 660.2 ns    (132 m%), step = 4.045 ps     (809 n%)
    tran: time = 660.2 ns    (132 m%), step = 5.315 ps    (1.06 u%)
    tran: time = 660.2 ns    (132 m%), step = 4.226 ps     (845 n%)
    tran: time = 660.2 ns    (132 m%), step = 5.502 ps     (1.1 u%)
    tran: time = 660.2 ns    (132 m%), step = 4.442 ps     (888 n%)
    tran: time = 660.2 ns    (132 m%), step = 1.596 ps     (319 n%)
    tran: time = 660.2 ns    (132 m%), step = 3.192 ps     (638 n%)
    tran: time = 660.2 ns    (132 m%), step = 5.231 ps    (1.05 u%)
    tran: time = 660.2 ns    (132 m%), step = 9.5 ps       (1.9 u%)
    tran: time = 660.2 ns    (132 m%), step = 9.439 ps    (1.89 u%)
    tran: time = 660.3 ns    (132 m%), step = 8.02 ps      (1.6 u%)
    tran: time = 660.3 ns    (132 m%), step = 7.57 ps     (1.51 u%)
    tran: time = 660.3 ns    (132 m%), step = 5.447 ps    (1.09 u%)
    tran: time = 660.3 ns    (132 m%), step = 5.953 ps    (1.19 u%)
    tran: time = 660.3 ns    (132 m%), step = 1.571 ps     (314 n%)
    tran: time = 660.3 ns    (132 m%), step = 3.143 ps     (629 n%)
    tran: time = 660.3 ns    (132 m%), step = 6.285 ps    (1.26 u%)
    tran: time = 660.3 ns    (132 m%), step = 11.5 ps      (2.3 u%)
    tran: time = 660.3 ns    (132 m%), step = 21.03 ps    (4.21 u%)
    tran: time = 660.3 ns    (132 m%), step = 28.17 ps    (5.63 u%)
    tran: time = 660.4 ns    (132 m%), step = 40.02 ps       (8 u%)
    tran: time = 660.5 ns    (132 m%), step = 68.73 ps    (13.7 u%)
    tran: time = 660.6 ns    (132 m%), step = 137.5 ps    (27.5 u%)
    tran: time = 660.8 ns    (132 m%), step = 214.5 ps    (42.9 u%)
    tran: time = 661.1 ns    (132 m%), step = 309.1 ps    (61.8 u%)
    tran: time = 661.7 ns    (132 m%), step = 538.7 ps     (108 u%)
    tran: time = 662.5 ns    (132 m%), step = 815.1 ps     (163 u%)
    tran: time = 663.8 ns    (133 m%), step = 1.379 ns     (276 u%)
    tran: time = 666 ns      (133 m%), step = 2.158 ns     (432 u%)
    tran: time = 669.6 ns    (134 m%), step = 3.569 ns     (714 u%)
    tran: time = 674.6 ns    (135 m%), step = 5.015 ns       (1 m%)
    tran: time = 684 ns      (137 m%), step = 9.379 ns    (1.88 m%)
    tran: time = 697.7 ns    (140 m%), step = 13.73 ns    (2.75 m%)
    tran: time = 710 ns      (142 m%), step = 12.3 ns     (2.46 m%)
    tran: time = 710 ns      (142 m%), step = 13.75 ps    (2.75 u%)
    tran: time = 710 ns      (142 m%), step = 5.156 ps    (1.03 u%)
    tran: time = 710 ns      (142 m%), step = 6.472 ps    (1.29 u%)
    tran: time = 710 ns      (142 m%), step = 7.671 ps    (1.53 u%)
    tran: time = 710 ns      (142 m%), step = 4.339 ps     (868 n%)
    tran: time = 710 ns      (142 m%), step = 6.536 ps    (1.31 u%)
    tran: time = 710 ns      (142 m%), step = 4.086 ps     (817 n%)
    tran: time = 710.1 ns    (142 m%), step = 3.495 ps     (699 n%)
    tran: time = 710.1 ns    (142 m%), step = 3.495 ps     (699 n%)
    tran: time = 710.1 ns    (142 m%), step = 4.797 ps     (959 n%)
    tran: time = 710.1 ns    (142 m%), step = 5.315 ps    (1.06 u%)
    tran: time = 710.1 ns    (142 m%), step = 4.5 ps       (900 n%)
    tran: time = 710.1 ns    (142 m%), step = 9 ps         (1.8 u%)
    tran: time = 710.1 ns    (142 m%), step = 9.012 ps     (1.8 u%)
    tran: time = 710.1 ns    (142 m%), step = 10.79 ps    (2.16 u%)
    tran: time = 710.1 ns    (142 m%), step = 9.495 ps     (1.9 u%)
    tran: time = 710.1 ns    (142 m%), step = 9.511 ps     (1.9 u%)
    tran: time = 710.1 ns    (142 m%), step = 10.5 ps      (2.1 u%)
    tran: time = 710.1 ns    (142 m%), step = 11.56 ps    (2.31 u%)
    tran: time = 710.2 ns    (142 m%), step = 12.74 ps    (2.55 u%)
    tran: time = 710.2 ns    (142 m%), step = 13.44 ps    (2.69 u%)
    tran: time = 710.2 ns    (142 m%), step = 2.77 ps      (554 n%)
    tran: time = 710.2 ns    (142 m%), step = 5.541 ps    (1.11 u%)
    tran: time = 710.2 ns    (142 m%), step = 4.088 ps     (818 n%)
    tran: time = 710.2 ns    (142 m%), step = 5.706 ps    (1.14 u%)
    tran: time = 710.2 ns    (142 m%), step = 4.024 ps     (805 n%)
    tran: time = 710.2 ns    (142 m%), step = 6.33 ps     (1.27 u%)
    tran: time = 710.2 ns    (142 m%), step = 4.768 ps     (954 n%)
    tran: time = 710.2 ns    (142 m%), step = 5.893 ps    (1.18 u%)
    tran: time = 710.2 ns    (142 m%), step = 3.848 ps     (770 n%)
    tran: time = 710.2 ns    (142 m%), step = 5.57 ps     (1.11 u%)
    tran: time = 710.2 ns    (142 m%), step = 4.321 ps     (864 n%)
    tran: time = 710.2 ns    (142 m%), step = 8.258 ps    (1.65 u%)
    tran: time = 710.2 ns    (142 m%), step = 5.628 ps    (1.13 u%)
    tran: time = 710.2 ns    (142 m%), step = 7.7 ps      (1.54 u%)
    tran: time = 710.2 ns    (142 m%), step = 1.523 ps     (305 n%)
    tran: time = 710.2 ns    (142 m%), step = 3.046 ps     (609 n%)
    tran: time = 710.2 ns    (142 m%), step = 4.194 ps     (839 n%)
    tran: time = 710.3 ns    (142 m%), step = 3.893 ps     (779 n%)
    tran: time = 710.3 ns    (142 m%), step = 4.316 ps     (863 n%)
    tran: time = 710.3 ns    (142 m%), step = 5.488 ps     (1.1 u%)
    tran: time = 710.3 ns    (142 m%), step = 7.579 ps    (1.52 u%)
    tran: time = 710.3 ns    (142 m%), step = 10.6 ps     (2.12 u%)
    tran: time = 710.3 ns    (142 m%), step = 20.75 ps    (4.15 u%)
    tran: time = 710.3 ns    (142 m%), step = 27.89 ps    (5.58 u%)
    tran: time = 710.4 ns    (142 m%), step = 46.8 ps     (9.36 u%)
    tran: time = 710.5 ns    (142 m%), step = 75.58 ps    (15.1 u%)
    tran: time = 710.6 ns    (142 m%), step = 149.5 ps    (29.9 u%)
    tran: time = 710.9 ns    (142 m%), step = 276.4 ps    (55.3 u%)
    tran: time = 711.3 ns    (142 m%), step = 433.1 ps    (86.6 u%)
    tran: time = 712.2 ns    (142 m%), step = 846.8 ps     (169 u%)
    tran: time = 713.4 ns    (143 m%), step = 1.205 ns     (241 u%)
    tran: time = 715.3 ns    (143 m%), step = 1.903 ns     (381 u%)
    tran: time = 718.1 ns    (144 m%), step = 2.829 ns     (566 u%)
    tran: time = 723.8 ns    (145 m%), step = 5.658 ns    (1.13 m%)
    tran: time = 732.9 ns    (147 m%), step = 9.194 ns    (1.84 m%)
    tran: time = 747.6 ns    (150 m%), step = 14.63 ns    (2.93 m%)
    tran: time = 760 ns      (152 m%), step = 12.42 ns    (2.48 m%)
    tran: time = 760 ns      (152 m%), step = 3.438 ps     (688 n%)
    tran: time = 760 ns      (152 m%), step = 6.875 ps    (1.38 u%)
    tran: time = 760 ns      (152 m%), step = 13.75 ps    (2.75 u%)
    tran: time = 760 ns      (152 m%), step = 15.47 ps    (3.09 u%)
    tran: time = 760 ns      (152 m%), step = 7.734 ps    (1.55 u%)
    tran: time = 760.1 ns    (152 m%), step = 7.734 ps    (1.55 u%)
    tran: time = 760.1 ns    (152 m%), step = 4.2 ps       (840 n%)
    tran: time = 760.1 ns    (152 m%), step = 6.593 ps    (1.32 u%)
    tran: time = 760.1 ns    (152 m%), step = 5.64 ps     (1.13 u%)
    tran: time = 760.1 ns    (152 m%), step = 8.072 ps    (1.61 u%)
    tran: time = 760.1 ns    (152 m%), step = 4.693 ps     (939 n%)
    tran: time = 760.1 ns    (152 m%), step = 8.084 ps    (1.62 u%)
    tran: time = 760.1 ns    (152 m%), step = 6.911 ps    (1.38 u%)
    tran: time = 760.1 ns    (152 m%), step = 11.01 ps     (2.2 u%)
    tran: time = 760.1 ns    (152 m%), step = 9.453 ps    (1.89 u%)
    tran: time = 760.1 ns    (152 m%), step = 12.52 ps     (2.5 u%)
    tran: time = 760.1 ns    (152 m%), step = 11.21 ps    (2.24 u%)
    tran: time = 760.2 ns    (152 m%), step = 13.21 ps    (2.64 u%)
    tran: time = 760.2 ns    (152 m%), step = 12.35 ps    (2.47 u%)
    tran: time = 760.2 ns    (152 m%), step = 3.605 ps     (721 n%)
    tran: time = 760.2 ns    (152 m%), step = 7.209 ps    (1.44 u%)
    tran: time = 760.2 ns    (152 m%), step = 9.266 ps    (1.85 u%)
    tran: time = 760.2 ns    (152 m%), step = 5.411 ps    (1.08 u%)
    tran: time = 760.2 ns    (152 m%), step = 7.383 ps    (1.48 u%)
    tran: time = 760.2 ns    (152 m%), step = 4.477 ps     (895 n%)
    tran: time = 760.2 ns    (152 m%), step = 5.731 ps    (1.15 u%)
    tran: time = 760.2 ns    (152 m%), step = 4.609 ps     (922 n%)
    tran: time = 760.2 ns    (152 m%), step = 1.668 ps     (334 n%)
    tran: time = 760.2 ns    (152 m%), step = 3.336 ps     (667 n%)
    tran: time = 760.2 ns    (152 m%), step = 5.269 ps    (1.05 u%)
    tran: time = 760.2 ns    (152 m%), step = 9.155 ps    (1.83 u%)
    tran: time = 760.2 ns    (152 m%), step = 9.436 ps    (1.89 u%)
    tran: time = 760.3 ns    (152 m%), step = 8.079 ps    (1.62 u%)
    tran: time = 760.3 ns    (152 m%), step = 7.567 ps    (1.51 u%)
    tran: time = 760.3 ns    (152 m%), step = 5.471 ps    (1.09 u%)
    tran: time = 760.3 ns    (152 m%), step = 5.973 ps    (1.19 u%)
    tran: time = 760.3 ns    (152 m%), step = 1.581 ps     (316 n%)
    tran: time = 760.3 ns    (152 m%), step = 3.162 ps     (632 n%)
    tran: time = 760.3 ns    (152 m%), step = 6.323 ps    (1.26 u%)
    tran: time = 760.3 ns    (152 m%), step = 11.64 ps    (2.33 u%)
    tran: time = 760.3 ns    (152 m%), step = 21.08 ps    (4.22 u%)
    tran: time = 760.3 ns    (152 m%), step = 28.35 ps    (5.67 u%)
    tran: time = 760.4 ns    (152 m%), step = 40.42 ps    (8.08 u%)
    tran: time = 760.5 ns    (152 m%), step = 69.2 ps     (13.8 u%)
    tran: time = 760.6 ns    (152 m%), step = 138.4 ps    (27.7 u%)
    tran: time = 760.8 ns    (152 m%), step = 240.7 ps    (48.1 u%)
    tran: time = 761.2 ns    (152 m%), step = 357.4 ps    (71.5 u%)
    tran: time = 761.8 ns    (152 m%), step = 581.1 ps     (116 u%)
    tran: time = 762.6 ns    (153 m%), step = 826 ps       (165 u%)
    tran: time = 764.1 ns    (153 m%), step = 1.512 ns     (302 u%)
    tran: time = 766.5 ns    (153 m%), step = 2.432 ns     (486 u%)
    tran: time = 770.7 ns    (154 m%), step = 4.129 ns     (826 u%)
    tran: time = 776.3 ns    (155 m%), step = 5.679 ns    (1.14 m%)
    tran: time = 786.3 ns    (157 m%), step = 9.901 ns    (1.98 m%)
    tran: time = 799.8 ns    (160 m%), step = 13.6 ns     (2.72 m%)
    tran: time = 810 ns      (162 m%), step = 10.15 ns    (2.03 m%)
    tran: time = 810 ns      (162 m%), step = 13.75 ps    (2.75 u%)
    tran: time = 810 ns      (162 m%), step = 5.156 ps    (1.03 u%)
    tran: time = 810 ns      (162 m%), step = 6.473 ps    (1.29 u%)
    tran: time = 810 ns      (162 m%), step = 7.672 ps    (1.53 u%)
    tran: time = 810 ns      (162 m%), step = 4.341 ps     (868 n%)
    tran: time = 810 ns      (162 m%), step = 6.535 ps    (1.31 u%)
    tran: time = 810 ns      (162 m%), step = 4.087 ps     (817 n%)
    tran: time = 810.1 ns    (162 m%), step = 3.493 ps     (699 n%)
    tran: time = 810.1 ns    (162 m%), step = 3.493 ps     (699 n%)
    tran: time = 810.1 ns    (162 m%), step = 4.796 ps     (959 n%)
    tran: time = 810.1 ns    (162 m%), step = 5.314 ps    (1.06 u%)
    tran: time = 810.1 ns    (162 m%), step = 4.499 ps     (900 n%)
    tran: time = 810.1 ns    (162 m%), step = 8.998 ps     (1.8 u%)
    tran: time = 810.1 ns    (162 m%), step = 9.01 ps      (1.8 u%)
    tran: time = 810.1 ns    (162 m%), step = 10.79 ps    (2.16 u%)
    tran: time = 810.1 ns    (162 m%), step = 9.495 ps     (1.9 u%)
    tran: time = 810.1 ns    (162 m%), step = 9.51 ps      (1.9 u%)
    tran: time = 810.1 ns    (162 m%), step = 10.5 ps      (2.1 u%)
    tran: time = 810.1 ns    (162 m%), step = 11.55 ps    (2.31 u%)
    tran: time = 810.2 ns    (162 m%), step = 12.73 ps    (2.55 u%)
    tran: time = 810.2 ns    (162 m%), step = 13.45 ps    (2.69 u%)
    tran: time = 810.2 ns    (162 m%), step = 2.768 ps     (554 n%)
    tran: time = 810.2 ns    (162 m%), step = 5.536 ps    (1.11 u%)
    tran: time = 810.2 ns    (162 m%), step = 4.092 ps     (818 n%)
    tran: time = 810.2 ns    (162 m%), step = 5.708 ps    (1.14 u%)
    tran: time = 810.2 ns    (162 m%), step = 4.023 ps     (805 n%)
    tran: time = 810.2 ns    (162 m%), step = 6.31 ps     (1.26 u%)
    tran: time = 810.2 ns    (162 m%), step = 4.765 ps     (953 n%)
    tran: time = 810.2 ns    (162 m%), step = 5.933 ps    (1.19 u%)
    tran: time = 810.2 ns    (162 m%), step = 3.959 ps     (792 n%)
    tran: time = 810.2 ns    (162 m%), step = 5.674 ps    (1.13 u%)
    tran: time = 810.2 ns    (162 m%), step = 4.356 ps     (871 n%)
    tran: time = 810.2 ns    (162 m%), step = 8.241 ps    (1.65 u%)
    tran: time = 810.2 ns    (162 m%), step = 5.762 ps    (1.15 u%)
    tran: time = 810.2 ns    (162 m%), step = 7.569 ps    (1.51 u%)
    tran: time = 810.2 ns    (162 m%), step = 6.245 ps    (1.25 u%)
    tran: time = 810.3 ns    (162 m%), step = 5.9 ps      (1.18 u%)
    tran: time = 810.3 ns    (162 m%), step = 4.799 ps     (960 n%)
    tran: time = 810.3 ns    (162 m%), step = 2.377 ps     (475 n%)
    tran: time = 810.3 ns    (162 m%), step = 4.755 ps     (951 n%)
    tran: time = 810.3 ns    (162 m%), step = 6.822 ps    (1.36 u%)
    tran: time = 810.3 ns    (162 m%), step = 13.64 ps    (2.73 u%)
    tran: time = 810.3 ns    (162 m%), step = 22.76 ps    (4.55 u%)
    tran: time = 810.3 ns    (162 m%), step = 30.99 ps     (6.2 u%)
    tran: time = 810.4 ns    (162 m%), step = 49.88 ps    (9.98 u%)
    tran: time = 810.5 ns    (162 m%), step = 87.14 ps    (17.4 u%)
    tran: time = 810.6 ns    (162 m%), step = 163.2 ps    (32.6 u%)
    tran: time = 810.9 ns    (162 m%), step = 250.7 ps    (50.1 u%)
    tran: time = 811.4 ns    (162 m%), step = 501.4 ps     (100 u%)
    tran: time = 812.3 ns    (162 m%), step = 889 ps       (178 u%)
    tran: time = 813.6 ns    (163 m%), step = 1.29 ns      (258 u%)
    tran: time = 815.4 ns    (163 m%), step = 1.806 ns     (361 u%)
    tran: time = 818.9 ns    (164 m%), step = 3.536 ns     (707 u%)
    tran: time = 825.3 ns    (165 m%), step = 6.391 ns    (1.28 m%)
    tran: time = 835.5 ns    (167 m%), step = 10.17 ns    (2.03 m%)
    tran: time = 849.5 ns    (170 m%), step = 14.02 ns     (2.8 m%)
    tran: time = 860 ns      (172 m%), step = 10.5 ns      (2.1 m%)
    tran: time = 860 ns      (172 m%), step = 13.75 ps    (2.75 u%)
    tran: time = 860 ns      (172 m%), step = 20.63 ps    (4.13 u%)
    tran: time = 860 ns      (172 m%), step = 10.31 ps    (2.06 u%)
    tran: time = 860.1 ns    (172 m%), step = 10.31 ps    (2.06 u%)
    tran: time = 860.1 ns    (172 m%), step = 4.497 ps     (899 n%)
    tran: time = 860.1 ns    (172 m%), step = 7.442 ps    (1.49 u%)
    tran: time = 860.1 ns    (172 m%), step = 6.215 ps    (1.24 u%)
    tran: time = 860.1 ns    (172 m%), step = 7.931 ps    (1.59 u%)
    tran: time = 860.1 ns    (172 m%), step = 5.92 ps     (1.18 u%)
    tran: time = 860.1 ns    (172 m%), step = 7.952 ps    (1.59 u%)
    tran: time = 860.1 ns    (172 m%), step = 7.799 ps    (1.56 u%)
    tran: time = 860.1 ns    (172 m%), step = 10.84 ps    (2.17 u%)
    tran: time = 860.1 ns    (172 m%), step = 9.367 ps    (1.87 u%)
    tran: time = 860.1 ns    (172 m%), step = 13.08 ps    (2.62 u%)
    tran: time = 860.1 ns    (172 m%), step = 11.03 ps    (2.21 u%)
    tran: time = 860.2 ns    (172 m%), step = 13.67 ps    (2.73 u%)
    tran: time = 860.2 ns    (172 m%), step = 13.45 ps    (2.69 u%)
    tran: time = 860.2 ns    (172 m%), step = 11.96 ps    (2.39 u%)
    tran: time = 860.2 ns    (172 m%), step = 2.231 ps     (446 n%)
    tran: time = 860.2 ns    (172 m%), step = 4.462 ps     (892 n%)
    tran: time = 860.2 ns    (172 m%), step = 4.045 ps     (809 n%)
    tran: time = 860.2 ns    (172 m%), step = 5.319 ps    (1.06 u%)
    tran: time = 860.2 ns    (172 m%), step = 4.227 ps     (845 n%)
    tran: time = 860.2 ns    (172 m%), step = 5.519 ps     (1.1 u%)
    tran: time = 860.2 ns    (172 m%), step = 4.393 ps     (879 n%)
    tran: time = 860.2 ns    (172 m%), step = 1.595 ps     (319 n%)
    tran: time = 860.2 ns    (172 m%), step = 3.19 ps      (638 n%)
    tran: time = 860.2 ns    (172 m%), step = 5.133 ps    (1.03 u%)
    tran: time = 860.2 ns    (172 m%), step = 9.526 ps    (1.91 u%)
    tran: time = 860.2 ns    (172 m%), step = 9.401 ps    (1.88 u%)
    tran: time = 860.3 ns    (172 m%), step = 8.102 ps    (1.62 u%)
    tran: time = 860.3 ns    (172 m%), step = 7.548 ps    (1.51 u%)
    tran: time = 860.3 ns    (172 m%), step = 5.467 ps    (1.09 u%)
    tran: time = 860.3 ns    (172 m%), step = 5.943 ps    (1.19 u%)
    tran: time = 860.3 ns    (172 m%), step = 1.572 ps     (314 n%)
    tran: time = 860.3 ns    (172 m%), step = 3.144 ps     (629 n%)
    tran: time = 860.3 ns    (172 m%), step = 6.287 ps    (1.26 u%)
    tran: time = 860.3 ns    (172 m%), step = 11.61 ps    (2.32 u%)
    tran: time = 860.3 ns    (172 m%), step = 21.1 ps     (4.22 u%)
    tran: time = 860.3 ns    (172 m%), step = 28.2 ps     (5.64 u%)
    tran: time = 860.4 ns    (172 m%), step = 39.97 ps    (7.99 u%)
    tran: time = 860.5 ns    (172 m%), step = 68.76 ps    (13.8 u%)
    tran: time = 860.6 ns    (172 m%), step = 137.5 ps    (27.5 u%)
    tran: time = 860.8 ns    (172 m%), step = 239.6 ps    (47.9 u%)
    tran: time = 861.2 ns    (172 m%), step = 355.9 ps    (71.2 u%)
    tran: time = 861.8 ns    (172 m%), step = 577.7 ps     (116 u%)
    tran: time = 862.6 ns    (173 m%), step = 820.2 ps     (164 u%)
    tran: time = 864 ns      (173 m%), step = 1.438 ns     (288 u%)
    tran: time = 866.4 ns    (173 m%), step = 2.333 ns     (467 u%)
    tran: time = 870.2 ns    (174 m%), step = 3.885 ns     (777 u%)
    tran: time = 875.7 ns    (175 m%), step = 5.444 ns    (1.09 m%)
    tran: time = 885.1 ns    (177 m%), step = 9.412 ns    (1.88 m%)
    tran: time = 897.5 ns    (180 m%), step = 12.42 ns    (2.48 m%)
    tran: time = 910 ns      (182 m%), step = 12.49 ns     (2.5 m%)
    tran: time = 910 ns      (182 m%), step = 13.75 ps    (2.75 u%)
    tran: time = 910 ns      (182 m%), step = 5.156 ps    (1.03 u%)
    tran: time = 910 ns      (182 m%), step = 6.472 ps    (1.29 u%)
    tran: time = 910 ns      (182 m%), step = 7.671 ps    (1.53 u%)
    tran: time = 910 ns      (182 m%), step = 4.341 ps     (868 n%)
    tran: time = 910 ns      (182 m%), step = 6.535 ps    (1.31 u%)
    tran: time = 910 ns      (182 m%), step = 4.087 ps     (817 n%)
    tran: time = 910.1 ns    (182 m%), step = 3.494 ps     (699 n%)
    tran: time = 910.1 ns    (182 m%), step = 3.494 ps     (699 n%)
    tran: time = 910.1 ns    (182 m%), step = 4.797 ps     (959 n%)
    tran: time = 910.1 ns    (182 m%), step = 5.315 ps    (1.06 u%)
    tran: time = 910.1 ns    (182 m%), step = 4.499 ps     (900 n%)
    tran: time = 910.1 ns    (182 m%), step = 8.999 ps     (1.8 u%)
    tran: time = 910.1 ns    (182 m%), step = 9.011 ps     (1.8 u%)
    tran: time = 910.1 ns    (182 m%), step = 10.79 ps    (2.16 u%)
    tran: time = 910.1 ns    (182 m%), step = 9.495 ps     (1.9 u%)
    tran: time = 910.1 ns    (182 m%), step = 9.51 ps      (1.9 u%)
    tran: time = 910.1 ns    (182 m%), step = 10.5 ps      (2.1 u%)
    tran: time = 910.1 ns    (182 m%), step = 11.55 ps    (2.31 u%)
    tran: time = 910.2 ns    (182 m%), step = 12.73 ps    (2.55 u%)
    tran: time = 910.2 ns    (182 m%), step = 13.45 ps    (2.69 u%)
    tran: time = 910.2 ns    (182 m%), step = 2.769 ps     (554 n%)
    tran: time = 910.2 ns    (182 m%), step = 5.538 ps    (1.11 u%)
    tran: time = 910.2 ns    (182 m%), step = 4.092 ps     (818 n%)
    tran: time = 910.2 ns    (182 m%), step = 5.708 ps    (1.14 u%)
    tran: time = 910.2 ns    (182 m%), step = 4.023 ps     (805 n%)
[...]
    tran: time = 9.61 us     (1.92 %), step = 5.782 ps    (1.16 u%)
    tran: time = 9.61 us     (1.92 %), step = 7.547 ps    (1.51 u%)
    tran: time = 9.61 us     (1.92 %), step = 6.263 ps    (1.25 u%)
    tran: time = 9.61 us     (1.92 %), step = 5.889 ps    (1.18 u%)
    tran: time = 9.61 us     (1.92 %), step = 4.874 ps     (975 n%)
    tran: time = 9.61 us     (1.92 %), step = 2.356 ps     (471 n%)
    tran: time = 9.61 us     (1.92 %), step = 4.712 ps     (942 n%)
    tran: time = 9.61 us     (1.92 %), step = 6.777 ps    (1.36 u%)
    tran: time = 9.61 us     (1.92 %), step = 13.55 ps    (2.71 u%)
    tran: time = 9.61 us     (1.92 %), step = 22.8 ps     (4.56 u%)
    tran: time = 9.61 us     (1.92 %), step = 30.95 ps    (6.19 u%)
    tran: time = 9.61 us     (1.92 %), step = 49.9 ps     (9.98 u%)
    tran: time = 9.61 us     (1.92 %), step = 86.98 ps    (17.4 u%)
    tran: time = 9.611 us    (1.92 %), step = 163 ps      (32.6 u%)
    tran: time = 9.611 us    (1.92 %), step = 250.7 ps    (50.1 u%)
    tran: time = 9.611 us    (1.92 %), step = 501.4 ps     (100 u%)
    tran: time = 9.612 us    (1.92 %), step = 875.5 ps     (175 u%)
    tran: time = 9.614 us    (1.92 %), step = 1.276 ns     (255 u%)
    tran: time = 9.615 us    (1.92 %), step = 1.79 ns      (358 u%)
    tran: time = 9.619 us    (1.92 %), step = 3.531 ns     (706 u%)
    tran: time = 9.625 us    (1.93 %), step = 6.364 ns    (1.27 m%)
    tran: time = 9.635 us    (1.93 %), step = 9.877 ns    (1.98 m%)
    tran: time = 9.648 us    (1.93 %), step = 12.45 ns    (2.49 m%)
    tran: time = 9.66 us     (1.93 %), step = 12.45 ns    (2.49 m%)
    tran: time = 9.66 us     (1.93 %), step = 3.437 ps     (687 n%)
    tran: time = 9.66 us     (1.93 %), step = 6.875 ps    (1.37 u%)
    tran: time = 9.66 us     (1.93 %), step = 13.75 ps    (2.75 u%)
    tran: time = 9.66 us     (1.93 %), step = 15.47 ps    (3.09 u%)
    tran: time = 9.66 us     (1.93 %), step = 7.734 ps    (1.55 u%)
    tran: time = 9.66 us     (1.93 %), step = 7.734 ps    (1.55 u%)
    tran: time = 9.66 us     (1.93 %), step = 4.2 ps       (840 n%)
    tran: time = 9.66 us     (1.93 %), step = 6.593 ps    (1.32 u%)
    tran: time = 9.66 us     (1.93 %), step = 5.64 ps     (1.13 u%)
    tran: time = 9.66 us     (1.93 %), step = 8.072 ps    (1.61 u%)
    tran: time = 9.66 us     (1.93 %), step = 4.693 ps     (939 n%)
    tran: time = 9.66 us     (1.93 %), step = 8.084 ps    (1.62 u%)
    tran: time = 9.66 us     (1.93 %), step = 6.912 ps    (1.38 u%)
    tran: time = 9.66 us     (1.93 %), step = 11 ps        (2.2 u%)
    tran: time = 9.66 us     (1.93 %), step = 9.453 ps    (1.89 u%)
    tran: time = 9.66 us     (1.93 %), step = 12.52 ps     (2.5 u%)
    tran: time = 9.66 us     (1.93 %), step = 11.21 ps    (2.24 u%)
    tran: time = 9.66 us     (1.93 %), step = 13.21 ps    (2.64 u%)
    tran: time = 9.66 us     (1.93 %), step = 12.35 ps    (2.47 u%)
    tran: time = 9.66 us     (1.93 %), step = 3.605 ps     (721 n%)
    tran: time = 9.66 us     (1.93 %), step = 7.21 ps     (1.44 u%)
    tran: time = 9.66 us     (1.93 %), step = 9.266 ps    (1.85 u%)
    tran: time = 9.66 us     (1.93 %), step = 5.412 ps    (1.08 u%)
    tran: time = 9.66 us     (1.93 %), step = 7.384 ps    (1.48 u%)
    tran: time = 9.66 us     (1.93 %), step = 4.477 ps     (895 n%)
    tran: time = 9.66 us     (1.93 %), step = 5.731 ps    (1.15 u%)
    tran: time = 9.66 us     (1.93 %), step = 4.609 ps     (922 n%)
    tran: time = 9.66 us     (1.93 %), step = 1.668 ps     (334 n%)
    tran: time = 9.66 us     (1.93 %), step = 3.336 ps     (667 n%)
    tran: time = 9.66 us     (1.93 %), step = 5.269 ps    (1.05 u%)
    tran: time = 9.66 us     (1.93 %), step = 9.132 ps    (1.83 u%)
    tran: time = 9.66 us     (1.93 %), step = 9.43 ps     (1.89 u%)
    tran: time = 9.66 us     (1.93 %), step = 8.097 ps    (1.62 u%)
    tran: time = 9.66 us     (1.93 %), step = 7.56 ps     (1.51 u%)
    tran: time = 9.66 us     (1.93 %), step = 5.476 ps     (1.1 u%)
    tran: time = 9.66 us     (1.93 %), step = 5.97 ps     (1.19 u%)
    tran: time = 9.66 us     (1.93 %), step = 1.583 ps     (317 n%)
    tran: time = 9.66 us     (1.93 %), step = 3.165 ps     (633 n%)
    tran: time = 9.66 us     (1.93 %), step = 6.331 ps    (1.27 u%)
    tran: time = 9.66 us     (1.93 %), step = 11.62 ps    (2.32 u%)
    tran: time = 9.66 us     (1.93 %), step = 21.06 ps    (4.21 u%)
    tran: time = 9.66 us     (1.93 %), step = 28.33 ps    (5.67 u%)
    tran: time = 9.66 us     (1.93 %), step = 40.39 ps    (8.08 u%)
    tran: time = 9.66 us     (1.93 %), step = 69.18 ps    (13.8 u%)
    tran: time = 9.661 us    (1.93 %), step = 138.4 ps    (27.7 u%)
    tran: time = 9.661 us    (1.93 %), step = 241.6 ps    (48.3 u%)
    tran: time = 9.661 us    (1.93 %), step = 359 ps      (71.8 u%)
    tran: time = 9.662 us    (1.93 %), step = 582.6 ps     (117 u%)
    tran: time = 9.663 us    (1.93 %), step = 826.8 ps     (165 u%)
    tran: time = 9.664 us    (1.93 %), step = 1.521 ns     (304 u%)
    tran: time = 9.667 us    (1.93 %), step = 2.441 ns     (488 u%)
    tran: time = 9.671 us    (1.93 %), step = 4.149 ns     (830 u%)
    tran: time = 9.676 us    (1.94 %), step = 5.699 ns    (1.14 m%)
    tran: time = 9.686 us    (1.94 %), step = 9.931 ns    (1.99 m%)
    tran: time = 9.7 us      (1.94 %), step = 13.66 ns    (2.73 m%)
    tran: time = 9.71 us     (1.94 %), step = 9.998 ns       (2 m%)
    tran: time = 9.71 us     (1.94 %), step = 13.75 ps    (2.75 u%)
    tran: time = 9.71 us     (1.94 %), step = 5.156 ps    (1.03 u%)
    tran: time = 9.71 us     (1.94 %), step = 6.473 ps    (1.29 u%)
    tran: time = 9.71 us     (1.94 %), step = 7.672 ps    (1.53 u%)
    tran: time = 9.71 us     (1.94 %), step = 4.341 ps     (868 n%)
    tran: time = 9.71 us     (1.94 %), step = 6.535 ps    (1.31 u%)
    tran: time = 9.71 us     (1.94 %), step = 4.087 ps     (817 n%)
    tran: time = 9.71 us     (1.94 %), step = 3.493 ps     (699 n%)
    tran: time = 9.71 us     (1.94 %), step = 4.796 ps     (959 n%)
    tran: time = 9.71 us     (1.94 %), step = 5.314 ps    (1.06 u%)
    tran: time = 9.71 us     (1.94 %), step = 4.499 ps     (900 n%)
    tran: time = 9.71 us     (1.94 %), step = 8.998 ps     (1.8 u%)
    tran: time = 9.71 us     (1.94 %), step = 9.01 ps      (1.8 u%)
    tran: time = 9.71 us     (1.94 %), step = 10.79 ps    (2.16 u%)
    tran: time = 9.71 us     (1.94 %), step = 9.495 ps     (1.9 u%)
    tran: time = 9.71 us     (1.94 %), step = 9.51 ps      (1.9 u%)
    tran: time = 9.71 us     (1.94 %), step = 10.5 ps      (2.1 u%)
    tran: time = 9.71 us     (1.94 %), step = 11.55 ps    (2.31 u%)
    tran: time = 9.71 us     (1.94 %), step = 12.73 ps    (2.55 u%)
    tran: time = 9.71 us     (1.94 %), step = 13.45 ps    (2.69 u%)
    tran: time = 9.71 us     (1.94 %), step = 2.768 ps     (554 n%)
    tran: time = 9.71 us     (1.94 %), step = 5.536 ps    (1.11 u%)
    tran: time = 9.71 us     (1.94 %), step = 4.092 ps     (818 n%)
    tran: time = 9.71 us     (1.94 %), step = 5.709 ps    (1.14 u%)
    tran: time = 9.71 us     (1.94 %), step = 4.023 ps     (805 n%)
    tran: time = 9.71 us     (1.94 %), step = 6.31 ps     (1.26 u%)
    tran: time = 9.71 us     (1.94 %), step = 4.765 ps     (953 n%)
    tran: time = 9.71 us     (1.94 %), step = 5.933 ps    (1.19 u%)
    tran: time = 9.71 us     (1.94 %), step = 3.96 ps      (792 n%)
    tran: time = 9.71 us     (1.94 %), step = 5.674 ps    (1.13 u%)
    tran: time = 9.71 us     (1.94 %), step = 4.356 ps     (871 n%)
    tran: time = 9.71 us     (1.94 %), step = 8.241 ps    (1.65 u%)
    tran: time = 9.71 us     (1.94 %), step = 5.762 ps    (1.15 u%)
    tran: time = 9.71 us     (1.94 %), step = 7.568 ps    (1.51 u%)
    tran: time = 9.71 us     (1.94 %), step = 6.245 ps    (1.25 u%)
    tran: time = 9.71 us     (1.94 %), step = 5.9 ps      (1.18 u%)
    tran: time = 9.71 us     (1.94 %), step = 4.8 ps       (960 n%)
    tran: time = 9.71 us     (1.94 %), step = 2.377 ps     (475 n%)
    tran: time = 9.71 us     (1.94 %), step = 4.754 ps     (951 n%)
    tran: time = 9.71 us     (1.94 %), step = 6.822 ps    (1.36 u%)
    tran: time = 9.71 us     (1.94 %), step = 13.64 ps    (2.73 u%)
    tran: time = 9.71 us     (1.94 %), step = 22.76 ps    (4.55 u%)
    tran: time = 9.71 us     (1.94 %), step = 30.99 ps     (6.2 u%)
    tran: time = 9.71 us     (1.94 %), step = 49.88 ps    (9.98 u%)
    tran: time = 9.71 us     (1.94 %), step = 87.14 ps    (17.4 u%)
    tran: time = 9.711 us    (1.94 %), step = 163.2 ps    (32.6 u%)
    tran: time = 9.711 us    (1.94 %), step = 250.7 ps    (50.1 u%)
    tran: time = 9.711 us    (1.94 %), step = 501.4 ps     (100 u%)
    tran: time = 9.712 us    (1.94 %), step = 889.1 ps     (178 u%)
    tran: time = 9.714 us    (1.94 %), step = 1.29 ns      (258 u%)
    tran: time = 9.715 us    (1.94 %), step = 1.806 ns     (361 u%)
    tran: time = 9.719 us    (1.94 %), step = 3.537 ns     (707 u%)
    tran: time = 9.725 us    (1.95 %), step = 6.391 ns    (1.28 m%)
    tran: time = 9.735 us    (1.95 %), step = 10.17 ns    (2.03 m%)
    tran: time = 9.749 us    (1.95 %), step = 14.03 ns    (2.81 m%)
    tran: time = 9.76 us     (1.95 %), step = 10.5 ns      (2.1 m%)
    tran: time = 9.76 us     (1.95 %), step = 3.437 ps     (687 n%)
    tran: time = 9.76 us     (1.95 %), step = 6.875 ps    (1.37 u%)
    tran: time = 9.76 us     (1.95 %), step = 13.75 ps    (2.75 u%)
    tran: time = 9.76 us     (1.95 %), step = 15.47 ps    (3.09 u%)
    tran: time = 9.76 us     (1.95 %), step = 7.734 ps    (1.55 u%)
    tran: time = 9.76 us     (1.95 %), step = 7.734 ps    (1.55 u%)
    tran: time = 9.76 us     (1.95 %), step = 4.2 ps       (840 n%)
    tran: time = 9.76 us     (1.95 %), step = 6.593 ps    (1.32 u%)
    tran: time = 9.76 us     (1.95 %), step = 5.64 ps     (1.13 u%)
    tran: time = 9.76 us     (1.95 %), step = 8.072 ps    (1.61 u%)
    tran: time = 9.76 us     (1.95 %), step = 8.084 ps    (1.62 u%)
    tran: time = 9.76 us     (1.95 %), step = 6.912 ps    (1.38 u%)
    tran: time = 9.76 us     (1.95 %), step = 11 ps        (2.2 u%)
    tran: time = 9.76 us     (1.95 %), step = 9.453 ps    (1.89 u%)
    tran: time = 9.76 us     (1.95 %), step = 12.52 ps     (2.5 u%)
    tran: time = 9.76 us     (1.95 %), step = 11.21 ps    (2.24 u%)
    tran: time = 9.76 us     (1.95 %), step = 13.21 ps    (2.64 u%)
    tran: time = 9.76 us     (1.95 %), step = 12.35 ps    (2.47 u%)
    tran: time = 9.76 us     (1.95 %), step = 3.605 ps     (721 n%)
    tran: time = 9.76 us     (1.95 %), step = 7.21 ps     (1.44 u%)
    tran: time = 9.76 us     (1.95 %), step = 9.266 ps    (1.85 u%)
    tran: time = 9.76 us     (1.95 %), step = 5.412 ps    (1.08 u%)
    tran: time = 9.76 us     (1.95 %), step = 7.384 ps    (1.48 u%)
    tran: time = 9.76 us     (1.95 %), step = 4.477 ps     (895 n%)
    tran: time = 9.76 us     (1.95 %), step = 5.731 ps    (1.15 u%)
    tran: time = 9.76 us     (1.95 %), step = 4.609 ps     (922 n%)
    tran: time = 9.76 us     (1.95 %), step = 1.668 ps     (334 n%)
    tran: time = 9.76 us     (1.95 %), step = 3.336 ps     (667 n%)
    tran: time = 9.76 us     (1.95 %), step = 5.269 ps    (1.05 u%)
    tran: time = 9.76 us     (1.95 %), step = 9.156 ps    (1.83 u%)
    tran: time = 9.76 us     (1.95 %), step = 9.436 ps    (1.89 u%)
    tran: time = 9.76 us     (1.95 %), step = 8.079 ps    (1.62 u%)
    tran: time = 9.76 us     (1.95 %), step = 7.567 ps    (1.51 u%)
    tran: time = 9.76 us     (1.95 %), step = 5.471 ps    (1.09 u%)
    tran: time = 9.76 us     (1.95 %), step = 5.974 ps    (1.19 u%)
    tran: time = 9.76 us     (1.95 %), step = 1.581 ps     (316 n%)
    tran: time = 9.76 us     (1.95 %), step = 3.161 ps     (632 n%)
    tran: time = 9.76 us     (1.95 %), step = 6.323 ps    (1.26 u%)
    tran: time = 9.76 us     (1.95 %), step = 11.64 ps    (2.33 u%)
    tran: time = 9.76 us     (1.95 %), step = 21.08 ps    (4.22 u%)
    tran: time = 9.76 us     (1.95 %), step = 28.35 ps    (5.67 u%)
    tran: time = 9.76 us     (1.95 %), step = 40.42 ps    (8.08 u%)
    tran: time = 9.76 us     (1.95 %), step = 69.21 ps    (13.8 u%)
    tran: time = 9.761 us    (1.95 %), step = 138.4 ps    (27.7 u%)
    tran: time = 9.761 us    (1.95 %), step = 240.8 ps    (48.2 u%)
    tran: time = 9.761 us    (1.95 %), step = 357.5 ps    (71.5 u%)
    tran: time = 9.762 us    (1.95 %), step = 581.2 ps     (116 u%)
    tran: time = 9.763 us    (1.95 %), step = 826.1 ps     (165 u%)
    tran: time = 9.764 us    (1.95 %), step = 1.512 ns     (302 u%)
    tran: time = 9.767 us    (1.95 %), step = 2.432 ns     (486 u%)
    tran: time = 9.771 us    (1.95 %), step = 4.13 ns      (826 u%)
    tran: time = 9.776 us    (1.96 %), step = 5.68 ns     (1.14 m%)
    tran: time = 9.786 us    (1.96 %), step = 9.902 ns    (1.98 m%)
    tran: time = 9.8 us      (1.96 %), step = 13.6 ns     (2.72 m%)
    tran: time = 9.81 us     (1.96 %), step = 10.15 ns    (2.03 m%)
    tran: time = 9.81 us     (1.96 %), step = 13.75 ps    (2.75 u%)
    tran: time = 9.81 us     (1.96 %), step = 5.156 ps    (1.03 u%)
    tran: time = 9.81 us     (1.96 %), step = 6.473 ps    (1.29 u%)
    tran: time = 9.81 us     (1.96 %), step = 7.672 ps    (1.53 u%)
    tran: time = 9.81 us     (1.96 %), step = 4.341 ps     (868 n%)
    tran: time = 9.81 us     (1.96 %), step = 6.535 ps    (1.31 u%)
    tran: time = 9.81 us     (1.96 %), step = 4.087 ps     (817 n%)
    tran: time = 9.81 us     (1.96 %), step = 3.493 ps     (699 n%)
    tran: time = 9.81 us     (1.96 %), step = 4.796 ps     (959 n%)
    tran: time = 9.81 us     (1.96 %), step = 5.314 ps    (1.06 u%)
    tran: time = 9.81 us     (1.96 %), step = 4.499 ps     (900 n%)
    tran: time = 9.81 us     (1.96 %), step = 8.998 ps     (1.8 u%)
    tran: time = 9.81 us     (1.96 %), step = 9.01 ps      (1.8 u%)
    tran: time = 9.81 us     (1.96 %), step = 10.79 ps    (2.16 u%)
    tran: time = 9.81 us     (1.96 %), step = 9.495 ps     (1.9 u%)
    tran: time = 9.81 us     (1.96 %), step = 9.51 ps      (1.9 u%)
    tran: time = 9.81 us     (1.96 %), step = 10.5 ps      (2.1 u%)
    tran: time = 9.81 us     (1.96 %), step = 11.55 ps    (2.31 u%)
    tran: time = 9.81 us     (1.96 %), step = 12.73 ps    (2.55 u%)
    tran: time = 9.81 us     (1.96 %), step = 13.45 ps    (2.69 u%)
    tran: time = 9.81 us     (1.96 %), step = 2.768 ps     (554 n%)
    tran: time = 9.81 us     (1.96 %), step = 5.536 ps    (1.11 u%)
    tran: time = 9.81 us     (1.96 %), step = 4.092 ps     (818 n%)
    tran: time = 9.81 us     (1.96 %), step = 5.708 ps    (1.14 u%)
    tran: time = 9.81 us     (1.96 %), step = 4.023 ps     (805 n%)
    tran: time = 9.81 us     (1.96 %), step = 6.31 ps     (1.26 u%)
    tran: time = 9.81 us     (1.96 %), step = 4.765 ps     (953 n%)
    tran: time = 9.81 us     (1.96 %), step = 5.933 ps    (1.19 u%)
    tran: time = 9.81 us     (1.96 %), step = 3.96 ps      (792 n%)
    tran: time = 9.81 us     (1.96 %), step = 5.675 ps    (1.13 u%)
    tran: time = 9.81 us     (1.96 %), step = 4.356 ps     (871 n%)
    tran: time = 9.81 us     (1.96 %), step = 8.241 ps    (1.65 u%)
    tran: time = 9.81 us     (1.96 %), step = 5.762 ps    (1.15 u%)
    tran: time = 9.81 us     (1.96 %), step = 7.569 ps    (1.51 u%)
    tran: time = 9.81 us     (1.96 %), step = 6.245 ps    (1.25 u%)
    tran: time = 9.81 us     (1.96 %), step = 5.9 ps      (1.18 u%)
    tran: time = 9.81 us     (1.96 %), step = 4.799 ps     (960 n%)
    tran: time = 9.81 us     (1.96 %), step = 2.377 ps     (475 n%)
    tran: time = 9.81 us     (1.96 %), step = 4.754 ps     (951 n%)
    tran: time = 9.81 us     (1.96 %), step = 6.822 ps    (1.36 u%)
    tran: time = 9.81 us     (1.96 %), step = 13.64 ps    (2.73 u%)
    tran: time = 9.81 us     (1.96 %), step = 22.76 ps    (4.55 u%)
    tran: time = 9.81 us     (1.96 %), step = 30.99 ps     (6.2 u%)
    tran: time = 9.81 us     (1.96 %), step = 49.88 ps    (9.98 u%)
    tran: time = 9.81 us     (1.96 %), step = 87.14 ps    (17.4 u%)
    tran: time = 9.811 us    (1.96 %), step = 163.2 ps    (32.6 u%)
    tran: time = 9.811 us    (1.96 %), step = 501.4 ps     (100 u%)
    tran: time = 9.812 us    (1.96 %), step = 889 ps       (178 u%)
    tran: time = 9.814 us    (1.96 %), step = 1.29 ns      (258 u%)
    tran: time = 9.815 us    (1.96 %), step = 1.806 ns     (361 u%)
    tran: time = 9.819 us    (1.96 %), step = 3.536 ns     (707 u%)
    tran: time = 9.825 us    (1.97 %), step = 6.391 ns    (1.28 m%)
    tran: time = 9.835 us    (1.97 %), step = 10.17 ns    (2.03 m%)
    tran: time = 9.849 us    (1.97 %), step = 14.02 ns     (2.8 m%)
    tran: time = 9.86 us     (1.97 %), step = 10.51 ns     (2.1 m%)
    tran: time = 9.86 us     (1.97 %), step = 3.437 ps     (687 n%)
    tran: time = 9.86 us     (1.97 %), step = 6.875 ps    (1.37 u%)
    tran: time = 9.86 us     (1.97 %), step = 13.75 ps    (2.75 u%)
    tran: time = 9.86 us     (1.97 %), step = 15.47 ps    (3.09 u%)
    tran: time = 9.86 us     (1.97 %), step = 7.734 ps    (1.55 u%)
    tran: time = 9.86 us     (1.97 %), step = 7.734 ps    (1.55 u%)
    tran: time = 9.86 us     (1.97 %), step = 4.2 ps       (840 n%)
    tran: time = 9.86 us     (1.97 %), step = 6.593 ps    (1.32 u%)
    tran: time = 9.86 us     (1.97 %), step = 5.64 ps     (1.13 u%)
    tran: time = 9.86 us     (1.97 %), step = 8.072 ps    (1.61 u%)
    tran: time = 9.86 us     (1.97 %), step = 4.693 ps     (939 n%)
    tran: time = 9.86 us     (1.97 %), step = 8.084 ps    (1.62 u%)
    tran: time = 9.86 us     (1.97 %), step = 6.912 ps    (1.38 u%)
    tran: time = 9.86 us     (1.97 %), step = 11 ps        (2.2 u%)
    tran: time = 9.86 us     (1.97 %), step = 9.453 ps    (1.89 u%)
    tran: time = 9.86 us     (1.97 %), step = 12.52 ps     (2.5 u%)
    tran: time = 9.86 us     (1.97 %), step = 11.21 ps    (2.24 u%)
    tran: time = 9.86 us     (1.97 %), step = 13.21 ps    (2.64 u%)
    tran: time = 9.86 us     (1.97 %), step = 12.35 ps    (2.47 u%)
    tran: time = 9.86 us     (1.97 %), step = 3.605 ps     (721 n%)
    tran: time = 9.86 us     (1.97 %), step = 7.21 ps     (1.44 u%)
    tran: time = 9.86 us     (1.97 %), step = 9.266 ps    (1.85 u%)
    tran: time = 9.86 us     (1.97 %), step = 5.412 ps    (1.08 u%)
    tran: time = 9.86 us     (1.97 %), step = 7.384 ps    (1.48 u%)
    tran: time = 9.86 us     (1.97 %), step = 4.477 ps     (895 n%)
    tran: time = 9.86 us     (1.97 %), step = 5.731 ps    (1.15 u%)
    tran: time = 9.86 us     (1.97 %), step = 4.609 ps     (922 n%)
    tran: time = 9.86 us     (1.97 %), step = 1.668 ps     (334 n%)
    tran: time = 9.86 us     (1.97 %), step = 3.336 ps     (667 n%)
    tran: time = 9.86 us     (1.97 %), step = 5.269 ps    (1.05 u%)
    tran: time = 9.86 us     (1.97 %), step = 9.156 ps    (1.83 u%)
    tran: time = 9.86 us     (1.97 %), step = 9.436 ps    (1.89 u%)
    tran: time = 9.86 us     (1.97 %), step = 8.091 ps    (1.62 u%)
    tran: time = 9.86 us     (1.97 %), step = 7.563 ps    (1.51 u%)
    tran: time = 9.86 us     (1.97 %), step = 5.547 ps    (1.11 u%)
    tran: time = 9.86 us     (1.97 %), step = 5.992 ps     (1.2 u%)
    tran: time = 9.86 us     (1.97 %), step = 1.607 ps     (321 n%)
    tran: time = 9.86 us     (1.97 %), step = 3.213 ps     (643 n%)
    tran: time = 9.86 us     (1.97 %), step = 6.426 ps    (1.29 u%)
    tran: time = 9.86 us     (1.97 %), step = 12.09 ps    (2.42 u%)
    tran: time = 9.86 us     (1.97 %), step = 21.29 ps    (4.26 u%)
    tran: time = 9.86 us     (1.97 %), step = 28.84 ps    (5.77 u%)
    tran: time = 9.86 us     (1.97 %), step = 41.32 ps    (8.26 u%)
    tran: time = 9.86 us     (1.97 %), step = 82.2 ps     (16.4 u%)
    tran: time = 9.861 us    (1.97 %), step = 164.4 ps    (32.9 u%)
    tran: time = 9.861 us    (1.97 %), step = 272.6 ps    (54.5 u%)
    tran: time = 9.861 us    (1.97 %), step = 395.4 ps    (79.1 u%)
    tran: time = 9.862 us    (1.97 %), step = 648 ps       (130 u%)
