
Spectre (R) Circuit Simulator
Version 19.1.0.496.isr12 64bit -- 16 Oct 2020
Copyright (C) 1989-2020 Cadence Design Systems, Inc. All rights reserved worldwide. Cadence and Spectre are registered trademarks of Cadence Design Systems, Inc. All others are the property of their respective holders.

Includes RSA BSAFE(R) Cryptographic or Security Protocol Software from RSA Security, Inc.

User: wrkhalil   Host: digisrv4   HostID: 7F0100   PID: 16186
Memory  available: 530.0634 GB  physical: 540.5059 GB
Linux   : Red Hat Enterprise Linux Server release 7.9 (Maipo)
CPU Type: AMD EPYC 7542 32-Core Processor
        Socket: Processors [Frequency] (Hyperthreaded Processor)
        0:       0 [1500.0] ( 64 ),  1 [1500.0] ( 65 ),  2 [1500.0] ( 66 )
                 3 [1500.0] ( 67 ),  4 [1500.0] ( 68 ),  5 [1500.0] ( 69 )
                 6 [1500.0] ( 70 ),  7 [1500.0] ( 71 ),  8 [1500.0] ( 72 )
                 9 [1500.0] ( 73 ), 10 [1500.0] ( 74 ), 11 [1500.0] ( 75 )
                12 [1500.0] ( 76 ), 13 [1500.0] ( 77 ), 14 [1500.0] ( 78 )
                15 [1500.0] ( 79 ), 16 [1500.0] ( 80 ), 17 [1500.0] ( 81 )
                18 [1500.0] ( 82 ), 19 [1500.0] ( 83 ), 20 [1500.0] ( 84 )
                21 [1500.0] ( 85 ), 22 [1500.0] ( 86 ), 23 [1500.0] ( 87 )
                24 [1500.0] ( 88 ), 25 [1500.0] ( 89 ), 26 [1500.0] ( 90 )
                27 [1500.0] ( 91 ), 28 [1500.0] ( 92 ), 29 [1500.0] ( 93 )
                30 [1500.0] ( 94 ), 31 [1500.0] ( 95 )
        1:      32 [1500.0] (), 33 [1500.0] (), 34 [1500.0] (), 35 [1500.0] (), 36 [1500.0] ()
                37 [1500.0] (), 38 [1500.0] (), 39 [1500.0] (), 40 [1500.0] (), 41 [1500.0] ()
                42 [1500.0] (), 43 [1500.0] (), 44 [1500.0] (), 45 [1500.0] (), 46 [1500.0] ()
                47 [1500.0] (), 48 [1500.0] (), 49 [1500.0] (), 50 [1500.0] (), 51 [1500.0] ()
                52 [1500.0] (), 53 [1500.0] (), 54 [1500.0] (), 55 [1500.0] (), 56 [1500.0] ()
                57 [1500.0] (), 58 [1500.0] (), 59 [1500.0] (), 60 [1500.0] (), 61 [1500.0] ()
                62 [1500.0] (), 63 [1500.0] (), 96 [2400.0] (), 97 [2400.0] (), 98 [1500.0] ()
                99 [1500.0] (), 100 [2900.0] (), 101 [2400.0] (), 102 [1500.0] (), 103 [1500.0] ()
                104 [1500.0] (), 105 [1500.0] (), 106 [1500.0] (), 107 [1500.0] (), 108 [1500.0] ()
                109 [1500.0] (), 110 [1500.0] (), 111 [1500.0] (), 112 [1500.0] (), 113 [1500.0] ()
                114 [1500.0] (), 115 [1500.0] (), 116 [1500.0] (), 117 [1500.0] (), 118 [1500.0] ()
                119 [1500.0] (), 120 [1500.0] (), 121 [1500.0] (), 122 [1500.0] (), 123 [1500.0] ()
                124 [1500.0] (), 125 [1500.0] (), 126 [1500.0] (), 127 [1500.0] ()
        
System load averages (1min, 5min, 15min) : 0.9 %, 1.3 %, 1.0 %
Hyperthreading is enabled
HPC is enabled


Simulating `input.scs' on digisrv4 at 11:14:44 AM, Mon Jul 11, 2022 (process id: 16186).
Current working directory: /home/wrkhalil/simulation/MTNCL_Smoothing_Filter/MTNCL_SF_Core_Top_Level_wo_sram_testbench_schematic_spectrex/maestro/results/maestro/ExplorerRun.0/1/MTNCL_Smoothing_Filter_MTNCL_SF_Core_Top_Level_wo_sram_testbench_schematic_spectrex_1/netlist
Command line:
    /mscad/apps/Linux/cadence/SPECTRE191/tools.lnx86/bin/spectre -64  \
        input.scs +escchars +log ../psf/spectre.out -format psfxl -raw  \
        ../psf +preset=vx +mt=64 +lqtimeout 900 -maxw 5 -maxn 5 -env  \
        ade -ahdllibdir  \
        /home/wrkhalil/simulation/MTNCL_Smoothing_Filter/MTNCL_SF_Core_Top_Level_wo_sram_testbench_schematic_spectrex/maestro/results/maestro/ExplorerRun.0/sharedData/CDS/ahdl/input.ahdlSimDB  \
        +logstatus

Loading /mscad/apps/Linux/cadence/SPECTRE191/tools.lnx86/cmi/lib/64bit/5.0/libinfineon_sh.so ...
Loading /mscad/apps/Linux/cadence/SPECTRE191/tools.lnx86/cmi/lib/64bit/5.0/libphilips_o_sh.so ...
Loading /mscad/apps/Linux/cadence/SPECTRE191/tools.lnx86/cmi/lib/64bit/5.0/libphilips_sh.so ...
Loading /mscad/apps/Linux/cadence/SPECTRE191/tools.lnx86/cmi/lib/64bit/5.0/libsparam_sh.so ...
Loading /mscad/apps/Linux/cadence/SPECTRE191/tools.lnx86/cmi/lib/64bit/5.0/libstmodels_sh.so ...
Reading file:  /home/wrkhalil/simulation/MTNCL_Smoothing_Filter/MTNCL_SF_Core_Top_Level_wo_sram_testbench_schematic_spectrex/maestro/results/maestro/ExplorerRun.0/1/MTNCL_Smoothing_Filter_MTNCL_SF_Core_Top_Level_wo_sram_testbench_schematic_spectrex_1/netlist/input.scs

Notice from spectre during circuit read-in.
    Pre_Configuration file used: /mscad/apps/Linux/cadence/SPECTRE191/tools.lnx86/spectre/etc/configs/preset.precfg
    Configuration file used: `/mscad/apps/Linux/cadence/SPECTRE191/tools.lnx86/spectre/etc/configs/preset.cfg'.

Reading file:  /mscad/apps/Linux/cadence/SPECTRE191/tools.lnx86/spectre/etc/configs/spectre.cfg
Reading file:  /mscad/apps/Linux/cadence/SPECTRE191/tools.lnx86/spectre/etc/configs/preset.precfg
Reading file:  /mscad/foundry/MUSE_65NM/PDK/Cadence_OA/tn65cmsp018k3_1_0c/models/spectre/crn65gplus_2d5_lk_v1d0.scs
Reading file:  /mscad/foundry/MUSE_65NM/PDK/Cadence_OA/tn65cmsp018k3_1_0c/models/spectre/mosCAPrf_ahdl.va
Reading link:  /mscad/apps/Linux/cadence/SPECTRE191/tools.lnx86/spectre/etc/ahdl/discipline.h
Reading file:  /mscad/apps/Linux/cadence/SPECTRE191/tools.lnx86/spectre/etc/ahdl/disciplines.vams
Reading link:  /mscad/apps/Linux/cadence/SPECTRE191/tools.lnx86/spectre/etc/ahdl/constants.h
Reading file:  /mscad/apps/Linux/cadence/SPECTRE191/tools.lnx86/spectre/etc/ahdl/constants.vams
Reading file:  /mscad/foundry/MUSE_65NM/PDK/Cadence_OA/tn65cmsp018k3_1_0c/models/spectre/mosCap_ahdl.va
Reading file:  /home/wrkhalil/simulation/MTNCL_Smoothing_Filter/MTNCL_SF_Core_Top_Level_wo_sram_testbench_schematic_spectrex/maestro/results/maestro/ExplorerRun.0/1/MTNCL_Smoothing_Filter_MTNCL_SF_Core_Top_Level_wo_sram_testbench_schematic_spectrex_1/netlist/_graphical_stimuli.scs
Reading file:  /home/wrkhalil/MTNCL-Stream-Processor/cadence/MTNCL_Smoothing_Filter/MTNCL_SF_Core_Top_Level_wo_sram_testbench_veriloga/veriloga/veriloga.va

Warning from spectre during AHDL read-in.
    WARNING (VACOMP-1139): "/home/wrkhalil/MTNCL-Stream-Processor/cadence/MTNCL_Smoothing_Filter/MTNCL_SF_Core_Top_Level_wo_sram_testbench_veriloga/veriloga/veriloga.va", line 86: (Archaic Syntax) Does not comply with the Accellera Verilog-AMS 2.0 Standard and beyond. To comply with the current standard, delete the null statement. You may use null statements (also known as empty statements and coded as just `;') only in case or event control statements.

Reading file:  /mscad/apps/Linux/cadence/SPECTRE191/tools.lnx86/spectre/etc/configs/preset.cfg
Time for NDB Parsing: CPU = 5.5382 s, elapsed = 25.9411 s.
Time accumulated: CPU = 5.68684 s, elapsed = 25.9411 s.
Peak resident memory used = 361 Mbytes.

Reading file:  /mscad/apps/Linux/cadence/SPECTRE191/tools.lnx86/spectre/etc/configs/mapsubckt.cfg

Warning from spectre during AHDL read-in.
    WARNING (VACOMP-1139): "/home/wrkhalil/MTNCL-Stream-Processor/cadence/MTNCL_Smoothing_Filter/MTNCL_SF_Core_Top_Level_wo_sram_testbench_veriloga/veriloga/veriloga.va", line 86: (Archaic Syntax) Does not comply with the Accellera Verilog-AMS 2.0 Standard and beyond. To comply with the current standard, delete the null statement. You may use null statements (also known as empty statements and coded as just `;') only in case or event control statements.

Opening directory /home/wrkhalil/simulation/MTNCL_Smoothing_Filter/MTNCL_SF_Core_Top_Level_wo_sram_testbench_schematic_spectrex/maestro/results/maestro/ExplorerRun.0/sharedData/CDS/ahdl/input.ahdlSimDB (775)
Created directory /home/wrkhalil/simulation/MTNCL_Smoothing_Filter/MTNCL_SF_Core_Top_Level_wo_sram_testbench_schematic_spectrex/maestro/results/maestro/ExplorerRun.0/sharedData/CDS/ahdl/input.ahdlSimDB/b8b1b291a453d1df8ce2e97cb114f351.MTNCL_SF_Core_Top_Level_wo_sram_testbench_veriloga.ahdlcmi/ (775)
Created directory /home/wrkhalil/simulation/MTNCL_Smoothing_Filter/MTNCL_SF_Core_Top_Level_wo_sram_testbench_schematic_spectrex/maestro/results/maestro/ExplorerRun.0/sharedData/CDS/ahdl/input.ahdlSimDB/b8b1b291a453d1df8ce2e97cb114f351.MTNCL_SF_Core_Top_Level_wo_sram_testbench_veriloga.ahdlcmi/Linux-64/ (775)
Compiling ahdlcmi module library for MTNCL_SF_Core_Top_Level_wo_sram_testbench_veriloga.
Finished compilation in 2.64 s (elapsed) for MTNCL_SF_Core_Top_Level_wo_sram_testbench_veriloga.
Installed compiled interface for MTNCL_SF_Core_Top_Level_wo_sram_testbench_veriloga.


Time for Elaboration: CPU = 26.2774 s, elapsed = 29.0217 s.
Time accumulated: CPU = 31.9644 s, elapsed = 54.9632 s.
Peak resident memory used = 936 Mbytes.


Warning from spectre during hierarchy flattening.
    WARNING (SPECTRE-17101): The value 'psf' specified for the 'checklimitdest' option will no longer be supported in future releases. Use 'spectre -h' to see other recommended values for the 'checklimitdest' option.


Time for EDB Visiting: CPU = 55.6984 s, elapsed = 55.74 s.
Time accumulated: CPU = 87.6631 s (1m  27.7s), elapsed = 110.704 s (1m  50.7s).
Peak resident memory used = 14.4 Gbytes.


Warning from spectre during initial setup.
    WARNING (SPECTRE-592): Following parameters are disabled because they are ignored or redefined in Spectre X:
        Option Parameters:
          reltol


Global user options:
         psfversion = 1.4.0
               temp = 27
               gmin = 1e-12
             rforce = 1
           maxnotes = 5
           maxwarns = 5
             digits = 5
               cols = 80
             pivrel = 0.001
           sensfile = ../psf/sens.output
     checklimitdest = psf
               save = allpub
               tnom = 27
             scalem = 1
              scale = 1

Scoped user options:

Circuit inventory:
              nodes 2210359
MTNCL_SF_Core_Top_Level_wo_sram_testbench_veriloga 1     
            vsource 2     
              bsim4 4420668

Analysis and control statement inventory:
               info 7     
               tran 1     

Output statements:
             .probe 0     
           .measure 0     
               save 1     


Notice from spectre during initial setup.
    Spectre X preset=vx Enabled.
    Multithreading Enabled: 64 threads in the system with 128 available processors.

Time for parsing: CPU = 645.282 s (10m  45.3s), elapsed = 322.949 s (5m  22.9s).
Time accumulated: CPU = 732.945 s (12m  12.9s), elapsed = 433.653 s (7m  13.7s).
Peak resident memory used = 21.7 Gbytes.

~~~~~~~~~~~~~~~~~~~~~~
Pre-Simulation Summary
~~~~~~~~~~~~~~~~~~~~~~
~~~~~~~~~~~~~~~~~~~~~~

*************************************************
Transient Analysis `tran': time = (0 s -> 500 us)
*************************************************
Finding DC approximate solution failed with try_fast_op=yes, continue running with try_fast_op=no.
Trying Fast DC 0 for initial conditions.
Reading file:  /home/wrkhalil/MTNCL-Stream-Processor/test/input_files_lena/image_test_64_by_64_clean
DC simulation time: CPU = 20.2929 ks, elapsed = 704.449 s.

Warning from spectre during transient analysis `tran'.
    WARNING: The cm value is specified for the tran analysis fastcross option but this value is supported only by AMS-Ultra or AMS-Spectre integrated with new Front-End. The simulator uses the fastcross discrete value instead of the cm value.


Opening the PSFXL file ../psf/tran.tran.tran ...
Important parameter values:
    start = 0 s
    outputstart = 0 s
    stop = 500 us
    step = 500 ns
    maxstep = 10 us
    ic = all
    useprevic = no
    skipdc = no
    reltol = 10e-03
    abstol(V) = 1 uV
    abstol(I) = 1 pA
    temp = 27 C
    tnom = 27 C
    tempeffects = all
    errpreset = liberal
    method = trap
    lteratio = 3.5
    relref = sigglobal
    cmin = 0 F
    gmin = 1 pS
    rabsshort = 1 mOhm
    compression = wildcardonly


Output and IC/nodeset summary:
                 save   2       (current)
                 save   2210359 (voltage)

    tran: time = 10 ns         (2 m%), step = 10 ns          (2 m%)
    tran: time = 10.5 ns     (2.1 m%), step = 500 ps       (100 u%)
    tran: time = 10.51 ns    (2.1 m%), step = 13.75 ps    (2.75 u%)
    tran: time = 10.53 ns   (2.11 m%), step = 20.63 ps    (4.12 u%)
    tran: time = 10.54 ns   (2.11 m%), step = 10.31 ps    (2.06 u%)
    tran: time = 10.55 ns   (2.11 m%), step = 10.31 ps    (2.06 u%)
    tran: time = 10.56 ns   (2.11 m%), step = 4.827 ps     (965 n%)
    tran: time = 10.57 ns   (2.11 m%), step = 6.78 ps     (1.36 u%)
    tran: time = 10.57 ns   (2.11 m%), step = 6.769 ps    (1.35 u%)
    tran: time = 10.58 ns   (2.12 m%), step = 7.605 ps    (1.52 u%)
    tran: time = 10.59 ns   (2.12 m%), step = 8.789 ps    (1.76 u%)
    tran: time = 10.6 ns    (2.12 m%), step = 10.53 ps    (2.11 u%)
    tran: time = 10.61 ns   (2.12 m%), step = 10.15 ps    (2.03 u%)
    tran: time = 10.62 ns   (2.12 m%), step = 8.877 ps    (1.78 u%)
    tran: time = 10.63 ns   (2.13 m%), step = 8.81 ps     (1.76 u%)
    tran: time = 10.63 ns   (2.13 m%), step = 6.239 ps    (1.25 u%)
    tran: time = 10.64 ns   (2.13 m%), step = 7.544 ps    (1.51 u%)
    tran: time = 10.65 ns   (2.13 m%), step = 7.915 ps    (1.58 u%)
    tran: time = 10.66 ns   (2.13 m%), step = 10.54 ps    (2.11 u%)
    tran: time = 10.67 ns   (2.13 m%), step = 10.72 ps    (2.14 u%)
    tran: time = 10.68 ns   (2.14 m%), step = 10.7 ps     (2.14 u%)
    tran: time = 10.69 ns   (2.14 m%), step = 10.07 ps    (2.01 u%)
    tran: time = 10.7 ns    (2.14 m%), step = 9.762 ps    (1.95 u%)
    tran: time = 10.71 ns   (2.14 m%), step = 10.53 ps    (2.11 u%)
    tran: time = 10.72 ns   (2.14 m%), step = 10.09 ps    (2.02 u%)
    tran: time = 10.73 ns   (2.15 m%), step = 9.016 ps     (1.8 u%)
    tran: time = 10.74 ns   (2.15 m%), step = 8.463 ps    (1.69 u%)
    tran: time = 10.75 ns   (2.15 m%), step = 9.272 ps    (1.85 u%)
    tran: time = 10.76 ns   (2.15 m%), step = 7.714 ps    (1.54 u%)
    tran: time = 10.76 ns   (2.15 m%), step = 4.454 ps     (891 n%)
    tran: time = 10.77 ns   (2.15 m%), step = 4.283 ps     (857 n%)
    tran: time = 10.77 ns   (2.15 m%), step = 4.713 ps     (943 n%)
    tran: time = 10.78 ns   (2.16 m%), step = 5.892 ps    (1.18 u%)
    tran: time = 10.78 ns   (2.16 m%), step = 5.616 ps    (1.12 u%)
    tran: time = 10.79 ns   (2.16 m%), step = 6.392 ps    (1.28 u%)
    tran: time = 10.79 ns   (2.16 m%), step = 6.207 ps    (1.24 u%)
    tran: time = 10.8 ns    (2.16 m%), step = 7.705 ps    (1.54 u%)
    tran: time = 10.81 ns   (2.16 m%), step = 5.739 ps    (1.15 u%)
    tran: time = 10.81 ns   (2.16 m%), step = 4.062 ps     (812 n%)
    tran: time = 10.82 ns   (2.16 m%), step = 4.02 ps      (804 n%)
    tran: time = 10.82 ns   (2.16 m%), step = 3.9 ps       (780 n%)
    tran: time = 10.82 ns   (2.16 m%), step = 4.729 ps     (946 n%)
    tran: time = 10.83 ns   (2.17 m%), step = 4.006 ps     (801 n%)
    tran: time = 10.83 ns   (2.17 m%), step = 3.029 ps     (606 n%)
    tran: time = 10.83 ns   (2.17 m%), step = 3.094 ps     (619 n%)
    tran: time = 10.84 ns   (2.17 m%), step = 5.158 ps    (1.03 u%)
    tran: time = 10.84 ns   (2.17 m%), step = 4.228 ps     (846 n%)
    tran: time = 10.85 ns   (2.17 m%), step = 6.173 ps    (1.23 u%)
    tran: time = 10.86 ns   (2.17 m%), step = 6.146 ps    (1.23 u%)
    tran: time = 10.86 ns   (2.17 m%), step = 7.57 ps     (1.51 u%)
    tran: time = 10.87 ns   (2.17 m%), step = 7.435 ps    (1.49 u%)
    tran: time = 10.88 ns   (2.18 m%), step = 6.121 ps    (1.22 u%)
    tran: time = 10.88 ns   (2.18 m%), step = 4.014 ps     (803 n%)
    tran: time = 10.89 ns   (2.18 m%), step = 4.197 ps     (839 n%)
    tran: time = 10.89 ns   (2.18 m%), step = 5.447 ps    (1.09 u%)
    tran: time = 10.9 ns    (2.18 m%), step = 4.43 ps      (886 n%)
    tran: time = 10.9 ns    (2.18 m%), step = 5.556 ps    (1.11 u%)
    tran: time = 10.91 ns   (2.18 m%), step = 5.266 ps    (1.05 u%)
    tran: time = 10.91 ns   (2.18 m%), step = 4.306 ps     (861 n%)
    tran: time = 10.91 ns   (2.18 m%), step = 4.134 ps     (827 n%)
    tran: time = 10.92 ns   (2.18 m%), step = 4.571 ps     (914 n%)
    tran: time = 10.93 ns   (2.19 m%), step = 5.757 ps    (1.15 u%)
    tran: time = 10.93 ns   (2.19 m%), step = 5.307 ps    (1.06 u%)
    tran: time = 10.94 ns   (2.19 m%), step = 6.345 ps    (1.27 u%)
    tran: time = 10.94 ns   (2.19 m%), step = 4.932 ps     (986 n%)
    tran: time = 10.95 ns   (2.19 m%), step = 4.895 ps     (979 n%)
    tran: time = 10.95 ns   (2.19 m%), step = 5.025 ps    (1.01 u%)
    tran: time = 10.96 ns   (2.19 m%), step = 4.876 ps     (975 n%)
    tran: time = 10.96 ns   (2.19 m%), step = 4.568 ps     (914 n%)
    tran: time = 10.97 ns   (2.19 m%), step = 5.803 ps    (1.16 u%)
    tran: time = 10.97 ns   (2.19 m%), step = 5.643 ps    (1.13 u%)
    tran: time = 10.98 ns    (2.2 m%), step = 4.643 ps     (929 n%)
    tran: time = 10.98 ns    (2.2 m%), step = 5.947 ps    (1.19 u%)
    tran: time = 10.99 ns    (2.2 m%), step = 4.472 ps     (894 n%)
    tran: time = 10.99 ns    (2.2 m%), step = 4.486 ps     (897 n%)
    tran: time = 11 ns       (2.2 m%), step = 3.284 ps     (657 n%)
    tran: time = 11 ns       (2.2 m%), step = 2.948 ps     (590 n%)
    tran: time = 11 ns       (2.2 m%), step = 3.222 ps     (644 n%)
    tran: time = 11 ns       (2.2 m%), step = 3.034 ps     (607 n%)
    tran: time = 11.01 ns    (2.2 m%), step = 3.569 ps     (714 n%)
    tran: time = 11.01 ns    (2.2 m%), step = 3.487 ps     (697 n%)
    tran: time = 11.02 ns    (2.2 m%), step = 3.872 ps     (774 n%)
    tran: time = 11.02 ns    (2.2 m%), step = 3.797 ps     (759 n%)
    tran: time = 11.02 ns    (2.2 m%), step = 4.622 ps     (924 n%)
    tran: time = 11.03 ns   (2.21 m%), step = 4.421 ps     (884 n%)
    tran: time = 11.03 ns   (2.21 m%), step = 5.065 ps    (1.01 u%)
    tran: time = 11.04 ns   (2.21 m%), step = 5.337 ps    (1.07 u%)
    tran: time = 11.04 ns   (2.21 m%), step = 4.624 ps     (925 n%)
    tran: time = 11.05 ns   (2.21 m%), step = 3.822 ps     (764 n%)
    tran: time = 11.05 ns   (2.21 m%), step = 3.561 ps     (712 n%)
    tran: time = 11.05 ns   (2.21 m%), step = 3.587 ps     (717 n%)
    tran: time = 11.06 ns   (2.21 m%), step = 3.852 ps     (770 n%)
    tran: time = 11.06 ns   (2.21 m%), step = 3.152 ps     (630 n%)
    tran: time = 11.06 ns   (2.21 m%), step = 3.437 ps     (687 n%)
    tran: time = 11.07 ns   (2.21 m%), step = 3.561 ps     (712 n%)
    tran: time = 11.07 ns   (2.21 m%), step = 3.931 ps     (786 n%)
    tran: time = 11.08 ns   (2.22 m%), step = 4.758 ps     (952 n%)
    tran: time = 11.08 ns   (2.22 m%), step = 3.658 ps     (732 n%)
    tran: time = 11.09 ns   (2.22 m%), step = 4.761 ps     (952 n%)
    tran: time = 11.09 ns   (2.22 m%), step = 5.028 ps    (1.01 u%)
    tran: time = 11.09 ns   (2.22 m%), step = 3.963 ps     (793 n%)
    tran: time = 11.1 ns    (2.22 m%), step = 4.636 ps     (927 n%)
    tran: time = 11.1 ns    (2.22 m%), step = 4.124 ps     (825 n%)
    tran: time = 11.11 ns   (2.22 m%), step = 4.765 ps     (953 n%)
    tran: time = 11.11 ns   (2.22 m%), step = 4.97 ps      (994 n%)
    tran: time = 11.12 ns   (2.22 m%), step = 4.897 ps     (979 n%)
    tran: time = 11.12 ns   (2.22 m%), step = 5.519 ps     (1.1 u%)
    tran: time = 11.13 ns   (2.23 m%), step = 4.186 ps     (837 n%)
    tran: time = 11.13 ns   (2.23 m%), step = 5.065 ps    (1.01 u%)
    tran: time = 11.14 ns   (2.23 m%), step = 3.735 ps     (747 n%)
    tran: time = 11.14 ns   (2.23 m%), step = 3.706 ps     (741 n%)
    tran: time = 11.14 ns   (2.23 m%), step = 3.547 ps     (709 n%)
    tran: time = 11.15 ns   (2.23 m%), step = 3.4 ps       (680 n%)
    tran: time = 11.15 ns   (2.23 m%), step = 3.534 ps     (707 n%)
    tran: time = 11.15 ns   (2.23 m%), step = 3.358 ps     (672 n%)
    tran: time = 11.16 ns   (2.23 m%), step = 4.09 ps      (818 n%)
    tran: time = 11.16 ns   (2.23 m%), step = 4.599 ps     (920 n%)
    tran: time = 11.17 ns   (2.23 m%), step = 5.27 ps     (1.05 u%)
    tran: time = 11.17 ns   (2.23 m%), step = 5.409 ps    (1.08 u%)
    tran: time = 11.18 ns   (2.24 m%), step = 4.319 ps     (864 n%)
    tran: time = 11.18 ns   (2.24 m%), step = 4.319 ps     (864 n%)
    tran: time = 11.19 ns   (2.24 m%), step = 6.42 ps     (1.28 u%)
    tran: time = 11.19 ns   (2.24 m%), step = 6.08 ps     (1.22 u%)
    tran: time = 11.2 ns    (2.24 m%), step = 6.732 ps    (1.35 u%)
    tran: time = 11.21 ns   (2.24 m%), step = 8.512 ps     (1.7 u%)
    tran: time = 11.22 ns   (2.24 m%), step = 7.354 ps    (1.47 u%)
    tran: time = 11.22 ns   (2.24 m%), step = 6.968 ps    (1.39 u%)
    tran: time = 11.23 ns   (2.25 m%), step = 6.065 ps    (1.21 u%)
    tran: time = 11.23 ns   (2.25 m%), step = 3.434 ps     (687 n%)
    tran: time = 11.24 ns   (2.25 m%), step = 3.434 ps     (687 n%)
    tran: time = 11.24 ns   (2.25 m%), step = 5.401 ps    (1.08 u%)
    tran: time = 11.25 ns   (2.25 m%), step = 4.982 ps     (996 n%)
    tran: time = 11.25 ns   (2.25 m%), step = 5.343 ps    (1.07 u%)
    tran: time = 11.26 ns   (2.25 m%), step = 8.055 ps    (1.61 u%)
    tran: time = 11.27 ns   (2.25 m%), step = 6.669 ps    (1.33 u%)
    tran: time = 11.27 ns   (2.25 m%), step = 6.424 ps    (1.28 u%)
    tran: time = 11.28 ns   (2.26 m%), step = 8.167 ps    (1.63 u%)
    tran: time = 11.29 ns   (2.26 m%), step = 7.415 ps    (1.48 u%)
    tran: time = 11.3 ns    (2.26 m%), step = 8.168 ps    (1.63 u%)
    tran: time = 11.3 ns    (2.26 m%), step = 7.521 ps     (1.5 u%)
    tran: time = 11.31 ns   (2.26 m%), step = 8.114 ps    (1.62 u%)
    tran: time = 11.32 ns   (2.26 m%), step = 7.284 ps    (1.46 u%)
    tran: time = 11.33 ns   (2.27 m%), step = 7.484 ps     (1.5 u%)
    tran: time = 11.34 ns   (2.27 m%), step = 7.947 ps    (1.59 u%)
    tran: time = 11.34 ns   (2.27 m%), step = 6.022 ps     (1.2 u%)
    tran: time = 11.35 ns   (2.27 m%), step = 6.448 ps    (1.29 u%)
    tran: time = 11.35 ns   (2.27 m%), step = 4.966 ps     (993 n%)
    tran: time = 11.36 ns   (2.27 m%), step = 6.201 ps    (1.24 u%)
    tran: time = 11.37 ns   (2.27 m%), step = 5.677 ps    (1.14 u%)
    tran: time = 11.37 ns   (2.27 m%), step = 6.678 ps    (1.34 u%)
    tran: time = 11.38 ns   (2.28 m%), step = 5.096 ps    (1.02 u%)
    tran: time = 11.38 ns   (2.28 m%), step = 5.114 ps    (1.02 u%)
    tran: time = 11.39 ns   (2.28 m%), step = 6.558 ps    (1.31 u%)
    tran: time = 11.4 ns    (2.28 m%), step = 6.744 ps    (1.35 u%)
    tran: time = 11.4 ns    (2.28 m%), step = 6.916 ps    (1.38 u%)
    tran: time = 11.41 ns   (2.28 m%), step = 7.228 ps    (1.45 u%)
    tran: time = 11.42 ns   (2.28 m%), step = 7.531 ps    (1.51 u%)
    tran: time = 11.42 ns   (2.28 m%), step = 6.501 ps     (1.3 u%)
    tran: time = 11.43 ns   (2.29 m%), step = 7.914 ps    (1.58 u%)
    tran: time = 11.44 ns   (2.29 m%), step = 7.255 ps    (1.45 u%)
    tran: time = 11.45 ns   (2.29 m%), step = 7.939 ps    (1.59 u%)
    tran: time = 11.45 ns   (2.29 m%), step = 8.005 ps     (1.6 u%)
    tran: time = 11.46 ns   (2.29 m%), step = 6.599 ps    (1.32 u%)
    tran: time = 11.47 ns   (2.29 m%), step = 5.626 ps    (1.13 u%)
    tran: time = 11.47 ns   (2.29 m%), step = 6.752 ps    (1.35 u%)
    tran: time = 11.48 ns    (2.3 m%), step = 6.305 ps    (1.26 u%)
    tran: time = 11.49 ns    (2.3 m%), step = 6.236 ps    (1.25 u%)
    tran: time = 11.49 ns    (2.3 m%), step = 6.661 ps    (1.33 u%)
    tran: time = 11.5 ns     (2.3 m%), step = 5.551 ps    (1.11 u%)
    tran: time = 11.5 ns     (2.3 m%), step = 6.242 ps    (1.25 u%)
    tran: time = 11.51 ns    (2.3 m%), step = 5.376 ps    (1.08 u%)
    tran: time = 11.52 ns    (2.3 m%), step = 6.74 ps     (1.35 u%)
    tran: time = 11.52 ns    (2.3 m%), step = 5.013 ps       (1 u%)
    tran: time = 11.53 ns   (2.31 m%), step = 5.355 ps    (1.07 u%)
    tran: time = 11.53 ns   (2.31 m%), step = 5.541 ps    (1.11 u%)
    tran: time = 11.54 ns   (2.31 m%), step = 6.351 ps    (1.27 u%)
    tran: time = 11.54 ns   (2.31 m%), step = 5.376 ps    (1.08 u%)
    tran: time = 11.55 ns   (2.31 m%), step = 6.097 ps    (1.22 u%)
    tran: time = 11.56 ns   (2.31 m%), step = 6.612 ps    (1.32 u%)
    tran: time = 11.56 ns   (2.31 m%), step = 7.289 ps    (1.46 u%)
    tran: time = 11.57 ns   (2.31 m%), step = 6.7 ps      (1.34 u%)
    tran: time = 11.58 ns   (2.32 m%), step = 6.939 ps    (1.39 u%)
    tran: time = 11.58 ns   (2.32 m%), step = 6.424 ps    (1.28 u%)
    tran: time = 11.59 ns   (2.32 m%), step = 5.71 ps     (1.14 u%)
    tran: time = 11.6 ns    (2.32 m%), step = 5.825 ps    (1.16 u%)
    tran: time = 11.6 ns    (2.32 m%), step = 4.82 ps      (964 n%)
    tran: time = 11.61 ns   (2.32 m%), step = 6.146 ps    (1.23 u%)
    tran: time = 11.61 ns   (2.32 m%), step = 5.067 ps    (1.01 u%)
    tran: time = 11.62 ns   (2.32 m%), step = 6.552 ps    (1.31 u%)
    tran: time = 11.63 ns   (2.33 m%), step = 6.554 ps    (1.31 u%)
    tran: time = 11.63 ns   (2.33 m%), step = 6.602 ps    (1.32 u%)
    tran: time = 11.64 ns   (2.33 m%), step = 6.544 ps    (1.31 u%)
    tran: time = 11.64 ns   (2.33 m%), step = 6.314 ps    (1.26 u%)
    tran: time = 11.65 ns   (2.33 m%), step = 7.757 ps    (1.55 u%)
    tran: time = 11.66 ns   (2.33 m%), step = 6.395 ps    (1.28 u%)
    tran: time = 11.67 ns   (2.33 m%), step = 7.369 ps    (1.47 u%)
    tran: time = 11.67 ns   (2.33 m%), step = 7.099 ps    (1.42 u%)
    tran: time = 11.68 ns   (2.34 m%), step = 7.118 ps    (1.42 u%)
    tran: time = 11.69 ns   (2.34 m%), step = 7.415 ps    (1.48 u%)
    tran: time = 11.69 ns   (2.34 m%), step = 6.826 ps    (1.37 u%)
    tran: time = 11.7 ns    (2.34 m%), step = 7.509 ps     (1.5 u%)
    tran: time = 11.71 ns   (2.34 m%), step = 7.267 ps    (1.45 u%)
    tran: time = 11.72 ns   (2.34 m%), step = 8.145 ps    (1.63 u%)
    tran: time = 11.73 ns   (2.35 m%), step = 8.39 ps     (1.68 u%)
    tran: time = 11.73 ns   (2.35 m%), step = 7.29 ps     (1.46 u%)
    tran: time = 11.74 ns   (2.35 m%), step = 8.217 ps    (1.64 u%)
    tran: time = 11.75 ns   (2.35 m%), step = 7.175 ps    (1.43 u%)
    tran: time = 11.75 ns   (2.35 m%), step = 6.138 ps    (1.23 u%)
    tran: time = 11.76 ns   (2.35 m%), step = 6.059 ps    (1.21 u%)
    tran: time = 11.77 ns   (2.35 m%), step = 6.214 ps    (1.24 u%)
    tran: time = 11.77 ns   (2.35 m%), step = 7.372 ps    (1.47 u%)
    tran: time = 11.78 ns   (2.36 m%), step = 8.545 ps    (1.71 u%)
    tran: time = 11.79 ns   (2.36 m%), step = 10.81 ps    (2.16 u%)
    tran: time = 11.81 ns   (2.36 m%), step = 11.86 ps    (2.37 u%)
    tran: time = 11.82 ns   (2.36 m%), step = 12.64 ps    (2.53 u%)
    tran: time = 11.83 ns   (2.37 m%), step = 14.23 ps    (2.85 u%)
    tran: time = 11.85 ns   (2.37 m%), step = 15.26 ps    (3.05 u%)
    tran: time = 11.86 ns   (2.37 m%), step = 13.65 ps    (2.73 u%)
    tran: time = 11.87 ns   (2.37 m%), step = 10.37 ps    (2.07 u%)
    tran: time = 11.88 ns   (2.38 m%), step = 10.37 ps    (2.07 u%)
    tran: time = 11.89 ns   (2.38 m%), step = 9.054 ps    (1.81 u%)
    tran: time = 11.9 ns    (2.38 m%), step = 8.228 ps    (1.65 u%)
    tran: time = 11.91 ns   (2.38 m%), step = 11.66 ps    (2.33 u%)
    tran: time = 11.92 ns   (2.38 m%), step = 13.03 ps    (2.61 u%)
    tran: time = 11.94 ns   (2.39 m%), step = 13.03 ps    (2.61 u%)
    tran: time = 11.95 ns   (2.39 m%), step = 11.78 ps    (2.36 u%)
    tran: time = 11.96 ns   (2.39 m%), step = 12.39 ps    (2.48 u%)
    tran: time = 11.97 ns   (2.39 m%), step = 13.22 ps    (2.64 u%)
    tran: time = 11.99 ns    (2.4 m%), step = 11.92 ps    (2.38 u%)
    tran: time = 12 ns       (2.4 m%), step = 13.44 ps    (2.69 u%)
    tran: time = 12.01 ns    (2.4 m%), step = 12.81 ps    (2.56 u%)
    tran: time = 12.03 ns   (2.41 m%), step = 12.6 ps     (2.52 u%)
    tran: time = 12.04 ns   (2.41 m%), step = 15.28 ps    (3.06 u%)
    tran: time = 12.04 ns   (2.41 m%), step = 4.469 ps     (894 n%)
    tran: time = 12.05 ns   (2.41 m%), step = 8.939 ps    (1.79 u%)
    tran: time = 12.06 ns   (2.41 m%), step = 9.915 ps    (1.98 u%)
    tran: time = 12.07 ns   (2.41 m%), step = 8.996 ps     (1.8 u%)
    tran: time = 12.08 ns   (2.42 m%), step = 9.715 ps    (1.94 u%)
    tran: time = 12.09 ns   (2.42 m%), step = 9.455 ps    (1.89 u%)
    tran: time = 12.1 ns    (2.42 m%), step = 7.534 ps    (1.51 u%)
    tran: time = 12.11 ns   (2.42 m%), step = 9.287 ps    (1.86 u%)
    tran: time = 12.12 ns   (2.42 m%), step = 9.617 ps    (1.92 u%)
    tran: time = 12.13 ns   (2.43 m%), step = 9.085 ps    (1.82 u%)
    tran: time = 12.14 ns   (2.43 m%), step = 7.595 ps    (1.52 u%)
    tran: time = 12.14 ns   (2.43 m%), step = 9.428 ps    (1.89 u%)
    tran: time = 12.15 ns   (2.43 m%), step = 9.18 ps     (1.84 u%)
    tran: time = 12.16 ns   (2.43 m%), step = 8.523 ps     (1.7 u%)
    tran: time = 12.17 ns   (2.43 m%), step = 8.88 ps     (1.78 u%)
    tran: time = 12.18 ns   (2.44 m%), step = 10.45 ps    (2.09 u%)
    tran: time = 12.19 ns   (2.44 m%), step = 9.744 ps    (1.95 u%)
    tran: time = 12.2 ns    (2.44 m%), step = 10.23 ps    (2.05 u%)
    tran: time = 12.21 ns   (2.44 m%), step = 8.867 ps    (1.77 u%)
    tran: time = 12.22 ns   (2.44 m%), step = 9.021 ps     (1.8 u%)
    tran: time = 12.23 ns   (2.45 m%), step = 9.011 ps     (1.8 u%)
    tran: time = 12.24 ns   (2.45 m%), step = 9.327 ps    (1.87 u%)
    tran: time = 12.25 ns   (2.45 m%), step = 9.003 ps     (1.8 u%)
    tran: time = 12.26 ns   (2.45 m%), step = 9.305 ps    (1.86 u%)
    tran: time = 12.27 ns   (2.45 m%), step = 10.5 ps      (2.1 u%)
    tran: time = 12.28 ns   (2.46 m%), step = 9.547 ps    (1.91 u%)
    tran: time = 12.29 ns   (2.46 m%), step = 9.862 ps    (1.97 u%)
    tran: time = 12.3 ns    (2.46 m%), step = 10.75 ps    (2.15 u%)
    tran: time = 12.31 ns   (2.46 m%), step = 11.12 ps    (2.22 u%)
    tran: time = 12.32 ns   (2.46 m%), step = 11.25 ps    (2.25 u%)
    tran: time = 12.33 ns   (2.47 m%), step = 11.32 ps    (2.26 u%)
    tran: time = 12.34 ns   (2.47 m%), step = 11.3 ps     (2.26 u%)
    tran: time = 12.35 ns   (2.47 m%), step = 9.673 ps    (1.93 u%)
    tran: time = 12.36 ns   (2.47 m%), step = 9.115 ps    (1.82 u%)
    tran: time = 12.37 ns   (2.47 m%), step = 10.54 ps    (2.11 u%)
    tran: time = 12.38 ns   (2.48 m%), step = 10.76 ps    (2.15 u%)
    tran: time = 12.39 ns   (2.48 m%), step = 11.15 ps    (2.23 u%)
    tran: time = 12.4 ns    (2.48 m%), step = 10.73 ps    (2.15 u%)
    tran: time = 12.41 ns   (2.48 m%), step = 11.41 ps    (2.28 u%)
    tran: time = 12.43 ns   (2.49 m%), step = 10.88 ps    (2.18 u%)
    tran: time = 12.44 ns   (2.49 m%), step = 12.06 ps    (2.41 u%)
    tran: time = 12.45 ns   (2.49 m%), step = 11.65 ps    (2.33 u%)
    tran: time = 12.46 ns   (2.49 m%), step = 11.69 ps    (2.34 u%)
    tran: time = 12.47 ns   (2.49 m%), step = 10.17 ps    (2.03 u%)
    tran: time = 12.48 ns    (2.5 m%), step = 9.054 ps    (1.81 u%)
    tran: time = 12.49 ns    (2.5 m%), step = 7.645 ps    (1.53 u%)
    tran: time = 12.5 ns     (2.5 m%), step = 7.317 ps    (1.46 u%)
    tran: time = 12.5 ns     (2.5 m%), step = 6.966 ps    (1.39 u%)
    tran: time = 12.51 ns    (2.5 m%), step = 7.899 ps    (1.58 u%)
    tran: time = 12.52 ns    (2.5 m%), step = 8.497 ps     (1.7 u%)
    tran: time = 12.53 ns   (2.51 m%), step = 8.836 ps    (1.77 u%)
    tran: time = 12.54 ns   (2.51 m%), step = 9.366 ps    (1.87 u%)
    tran: time = 12.54 ns   (2.51 m%), step = 7.843 ps    (1.57 u%)
    tran: time = 12.55 ns   (2.51 m%), step = 6.644 ps    (1.33 u%)
    tran: time = 12.56 ns   (2.51 m%), step = 7.181 ps    (1.44 u%)
    tran: time = 12.57 ns   (2.51 m%), step = 8.248 ps    (1.65 u%)
    tran: time = 12.58 ns   (2.52 m%), step = 9.333 ps    (1.87 u%)
    tran: time = 12.59 ns   (2.52 m%), step = 9.816 ps    (1.96 u%)
    tran: time = 12.59 ns   (2.52 m%), step = 6.89 ps     (1.38 u%)
    tran: time = 12.6 ns    (2.52 m%), step = 6.89 ps     (1.38 u%)
    tran: time = 12.61 ns   (2.52 m%), step = 7.356 ps    (1.47 u%)
    tran: time = 12.61 ns   (2.52 m%), step = 6.959 ps    (1.39 u%)
    tran: time = 12.62 ns   (2.52 m%), step = 9.138 ps    (1.83 u%)
    tran: time = 12.63 ns   (2.53 m%), step = 11.6 ps     (2.32 u%)
    tran: time = 12.65 ns   (2.53 m%), step = 12.88 ps    (2.58 u%)
    tran: time = 12.66 ns   (2.53 m%), step = 10.73 ps    (2.15 u%)
    tran: time = 12.67 ns   (2.53 m%), step = 10.58 ps    (2.12 u%)
    tran: time = 12.68 ns   (2.54 m%), step = 11.05 ps    (2.21 u%)
    tran: time = 12.69 ns   (2.54 m%), step = 9.609 ps    (1.92 u%)
    tran: time = 12.7 ns    (2.54 m%), step = 7.699 ps    (1.54 u%)
    tran: time = 12.71 ns   (2.54 m%), step = 12.5 ps      (2.5 u%)
    tran: time = 12.72 ns   (2.54 m%), step = 7.298 ps    (1.46 u%)
    tran: time = 12.73 ns   (2.55 m%), step = 12.04 ps    (2.41 u%)
    tran: time = 12.74 ns   (2.55 m%), step = 11.73 ps    (2.35 u%)
    tran: time = 12.75 ns   (2.55 m%), step = 10.65 ps    (2.13 u%)
    tran: time = 12.76 ns   (2.55 m%), step = 12.62 ps    (2.52 u%)
    tran: time = 12.77 ns   (2.55 m%), step = 10.49 ps     (2.1 u%)
    tran: time = 12.79 ns   (2.56 m%), step = 12.53 ps    (2.51 u%)
    tran: time = 12.8 ns    (2.56 m%), step = 12.11 ps    (2.42 u%)
    tran: time = 12.81 ns   (2.56 m%), step = 12.56 ps    (2.51 u%)
    tran: time = 12.82 ns   (2.56 m%), step = 12.16 ps    (2.43 u%)
    tran: time = 12.84 ns   (2.57 m%), step = 11.96 ps    (2.39 u%)
    tran: time = 12.85 ns   (2.57 m%), step = 14.19 ps    (2.84 u%)
    tran: time = 12.86 ns   (2.57 m%), step = 11.47 ps    (2.29 u%)
    tran: time = 12.87 ns   (2.57 m%), step = 10.25 ps    (2.05 u%)
    tran: time = 12.88 ns   (2.58 m%), step = 12.94 ps    (2.59 u%)
    tran: time = 12.9 ns    (2.58 m%), step = 11.11 ps    (2.22 u%)
    tran: time = 12.91 ns   (2.58 m%), step = 12.07 ps    (2.41 u%)
    tran: time = 12.92 ns   (2.58 m%), step = 12.7 ps     (2.54 u%)
    tran: time = 12.93 ns   (2.59 m%), step = 11.04 ps    (2.21 u%)
    tran: time = 12.94 ns   (2.59 m%), step = 9.309 ps    (1.86 u%)
    tran: time = 12.95 ns   (2.59 m%), step = 9.527 ps    (1.91 u%)
    tran: time = 12.96 ns   (2.59 m%), step = 8.411 ps    (1.68 u%)
    tran: time = 12.97 ns   (2.59 m%), step = 9.169 ps    (1.83 u%)
    tran: time = 12.98 ns    (2.6 m%), step = 7.817 ps    (1.56 u%)
    tran: time = 12.98 ns    (2.6 m%), step = 8.272 ps    (1.65 u%)
    tran: time = 12.99 ns    (2.6 m%), step = 7.977 ps     (1.6 u%)
    tran: time = 13 ns       (2.6 m%), step = 6.652 ps    (1.33 u%)
    tran: time = 13.01 ns    (2.6 m%), step = 8.397 ps    (1.68 u%)
    tran: time = 13.02 ns    (2.6 m%), step = 8.38 ps     (1.68 u%)
    tran: time = 13.02 ns    (2.6 m%), step = 9.141 ps    (1.83 u%)
    tran: time = 13.03 ns   (2.61 m%), step = 9.974 ps    (1.99 u%)
    tran: time = 13.04 ns   (2.61 m%), step = 9.511 ps     (1.9 u%)
    tran: time = 13.05 ns   (2.61 m%), step = 9.995 ps       (2 u%)
    tran: time = 13.06 ns   (2.61 m%), step = 9.161 ps    (1.83 u%)
    tran: time = 13.07 ns   (2.61 m%), step = 8.658 ps    (1.73 u%)
    tran: time = 13.08 ns   (2.62 m%), step = 9.038 ps    (1.81 u%)
    tran: time = 13.09 ns   (2.62 m%), step = 8.092 ps    (1.62 u%)
    tran: time = 13.1 ns    (2.62 m%), step = 6.602 ps    (1.32 u%)
    tran: time = 13.1 ns    (2.62 m%), step = 6.7 ps      (1.34 u%)
    tran: time = 13.11 ns   (2.62 m%), step = 7.195 ps    (1.44 u%)
    tran: time = 13.12 ns   (2.62 m%), step = 7.791 ps    (1.56 u%)
    tran: time = 13.13 ns   (2.63 m%), step = 8.98 ps      (1.8 u%)
    tran: time = 13.14 ns   (2.63 m%), step = 8.699 ps    (1.74 u%)
    tran: time = 13.14 ns   (2.63 m%), step = 8.898 ps    (1.78 u%)
    tran: time = 13.15 ns   (2.63 m%), step = 8.64 ps     (1.73 u%)
    tran: time = 13.16 ns   (2.63 m%), step = 9.315 ps    (1.86 u%)
    tran: time = 13.17 ns   (2.63 m%), step = 8.73 ps     (1.75 u%)
    tran: time = 13.18 ns   (2.64 m%), step = 8.964 ps    (1.79 u%)
    tran: time = 13.19 ns   (2.64 m%), step = 10.17 ps    (2.03 u%)
    tran: time = 13.2 ns    (2.64 m%), step = 8.833 ps    (1.77 u%)
    tran: time = 13.21 ns   (2.64 m%), step = 8.19 ps     (1.64 u%)
    tran: time = 13.21 ns   (2.64 m%), step = 5.084 ps    (1.02 u%)
    tran: time = 13.22 ns   (2.64 m%), step = 5.084 ps    (1.02 u%)
    tran: time = 13.22 ns   (2.64 m%), step = 6.72 ps     (1.34 u%)
    tran: time = 13.23 ns   (2.65 m%), step = 6.31 ps     (1.26 u%)
    tran: time = 13.24 ns   (2.65 m%), step = 8.29 ps     (1.66 u%)
    tran: time = 13.25 ns   (2.65 m%), step = 7.52 ps      (1.5 u%)
    tran: time = 13.25 ns   (2.65 m%), step = 7.486 ps     (1.5 u%)
    tran: time = 13.26 ns   (2.65 m%), step = 8.687 ps    (1.74 u%)
    tran: time = 13.27 ns   (2.65 m%), step = 4.993 ps     (999 n%)
    tran: time = 13.27 ns   (2.65 m%), step = 4.993 ps     (999 n%)
    tran: time = 13.28 ns   (2.66 m%), step = 7.568 ps    (1.51 u%)
    tran: time = 13.29 ns   (2.66 m%), step = 7.302 ps    (1.46 u%)
    tran: time = 13.29 ns   (2.66 m%), step = 7.674 ps    (1.53 u%)
    tran: time = 13.3 ns    (2.66 m%), step = 9.99 ps        (2 u%)
    tran: time = 13.31 ns   (2.66 m%), step = 9.331 ps    (1.87 u%)
    tran: time = 13.32 ns   (2.66 m%), step = 9.257 ps    (1.85 u%)
    tran: time = 13.33 ns   (2.67 m%), step = 8.57 ps     (1.71 u%)
    tran: time = 13.34 ns   (2.67 m%), step = 10.25 ps    (2.05 u%)
    tran: time = 13.35 ns   (2.67 m%), step = 9.983 ps       (2 u%)
    tran: time = 13.36 ns   (2.67 m%), step = 9.316 ps    (1.86 u%)
    tran: time = 13.37 ns   (2.67 m%), step = 7.829 ps    (1.57 u%)
    tran: time = 13.38 ns   (2.68 m%), step = 7.368 ps    (1.47 u%)
    tran: time = 13.39 ns   (2.68 m%), step = 8.368 ps    (1.67 u%)
    tran: time = 13.39 ns   (2.68 m%), step = 8.581 ps    (1.72 u%)
    tran: time = 13.4 ns    (2.68 m%), step = 9.506 ps     (1.9 u%)
    tran: time = 13.41 ns   (2.68 m%), step = 9.654 ps    (1.93 u%)
    tran: time = 13.42 ns   (2.68 m%), step = 8.302 ps    (1.66 u%)
    tran: time = 13.43 ns   (2.69 m%), step = 8.933 ps    (1.79 u%)
    tran: time = 13.44 ns   (2.69 m%), step = 10.38 ps    (2.08 u%)
    tran: time = 13.45 ns   (2.69 m%), step = 10.83 ps    (2.17 u%)
    tran: time = 13.46 ns   (2.69 m%), step = 9.28 ps     (1.86 u%)
    tran: time = 13.47 ns   (2.69 m%), step = 9.686 ps    (1.94 u%)
    tran: time = 13.48 ns    (2.7 m%), step = 10.98 ps     (2.2 u%)
    tran: time = 13.49 ns    (2.7 m%), step = 10.5 ps      (2.1 u%)
    tran: time = 13.5 ns     (2.7 m%), step = 10.5 ps      (2.1 u%)
    tran: time = 13.52 ns    (2.7 m%), step = 13.16 ps    (2.63 u%)
    tran: time = 13.53 ns   (2.71 m%), step = 9.759 ps    (1.95 u%)
    tran: time = 13.54 ns   (2.71 m%), step = 10.53 ps    (2.11 u%)
    tran: time = 13.55 ns   (2.71 m%), step = 9.943 ps    (1.99 u%)
    tran: time = 13.55 ns   (2.71 m%), step = 8.798 ps    (1.76 u%)
    tran: time = 13.57 ns   (2.71 m%), step = 10.64 ps    (2.13 u%)
    tran: time = 13.57 ns   (2.71 m%), step = 9.907 ps    (1.98 u%)
    tran: time = 13.59 ns   (2.72 m%), step = 15.08 ps    (3.02 u%)
    tran: time = 13.6 ns    (2.72 m%), step = 12.79 ps    (2.56 u%)
    tran: time = 13.62 ns   (2.72 m%), step = 13.73 ps    (2.75 u%)
    tran: time = 13.63 ns   (2.73 m%), step = 11.19 ps    (2.24 u%)
    tran: time = 13.64 ns   (2.73 m%), step = 10.86 ps    (2.17 u%)
    tran: time = 13.65 ns   (2.73 m%), step = 11.65 ps    (2.33 u%)
    tran: time = 13.66 ns   (2.73 m%), step = 11.89 ps    (2.38 u%)
    tran: time = 13.67 ns   (2.73 m%), step = 9.06 ps     (1.81 u%)
    tran: time = 13.68 ns   (2.74 m%), step = 9.401 ps    (1.88 u%)
    tran: time = 13.69 ns   (2.74 m%), step = 8.515 ps     (1.7 u%)
    tran: time = 13.7 ns    (2.74 m%), step = 9.648 ps    (1.93 u%)
    tran: time = 13.71 ns   (2.74 m%), step = 8.66 ps     (1.73 u%)
    tran: time = 13.72 ns   (2.74 m%), step = 8.305 ps    (1.66 u%)
    tran: time = 13.73 ns   (2.75 m%), step = 9.359 ps    (1.87 u%)
    tran: time = 13.73 ns   (2.75 m%), step = 9.314 ps    (1.86 u%)
    tran: time = 13.74 ns   (2.75 m%), step = 9.594 ps    (1.92 u%)
    tran: time = 13.75 ns   (2.75 m%), step = 9.688 ps    (1.94 u%)
    tran: time = 13.76 ns   (2.75 m%), step = 10.33 ps    (2.07 u%)
    tran: time = 13.77 ns   (2.75 m%), step = 8.771 ps    (1.75 u%)
    tran: time = 13.78 ns   (2.76 m%), step = 8.67 ps     (1.73 u%)
    tran: time = 13.79 ns   (2.76 m%), step = 7.365 ps    (1.47 u%)
    tran: time = 13.8 ns    (2.76 m%), step = 7.758 ps    (1.55 u%)
    tran: time = 13.8 ns    (2.76 m%), step = 6.251 ps    (1.25 u%)
    tran: time = 13.81 ns   (2.76 m%), step = 5.955 ps    (1.19 u%)
    tran: time = 13.81 ns   (2.76 m%), step = 5.728 ps    (1.15 u%)
    tran: time = 13.82 ns   (2.76 m%), step = 5.949 ps    (1.19 u%)
    tran: time = 13.83 ns   (2.77 m%), step = 6.725 ps    (1.34 u%)
    tran: time = 13.83 ns   (2.77 m%), step = 6.839 ps    (1.37 u%)
    tran: time = 13.84 ns   (2.77 m%), step = 6.247 ps    (1.25 u%)
    tran: time = 13.85 ns   (2.77 m%), step = 8.121 ps    (1.62 u%)
    tran: time = 13.85 ns   (2.77 m%), step = 6.638 ps    (1.33 u%)
    tran: time = 13.86 ns   (2.77 m%), step = 7.672 ps    (1.53 u%)
    tran: time = 13.87 ns   (2.77 m%), step = 7.312 ps    (1.46 u%)
    tran: time = 13.88 ns   (2.78 m%), step = 6.725 ps    (1.35 u%)
    tran: time = 13.88 ns   (2.78 m%), step = 7.107 ps    (1.42 u%)
    tran: time = 13.89 ns   (2.78 m%), step = 7.505 ps     (1.5 u%)
    tran: time = 13.9 ns    (2.78 m%), step = 7.961 ps    (1.59 u%)
    tran: time = 13.91 ns   (2.78 m%), step = 9.539 ps    (1.91 u%)
    tran: time = 13.92 ns   (2.78 m%), step = 8.576 ps    (1.72 u%)
    tran: time = 13.92 ns   (2.78 m%), step = 7.156 ps    (1.43 u%)
    tran: time = 13.93 ns   (2.79 m%), step = 7.156 ps    (1.43 u%)
    tran: time = 13.94 ns   (2.79 m%), step = 7.053 ps    (1.41 u%)
    tran: time = 13.95 ns   (2.79 m%), step = 8.333 ps    (1.67 u%)
    tran: time = 13.95 ns   (2.79 m%), step = 6.658 ps    (1.33 u%)
    tran: time = 13.96 ns   (2.79 m%), step = 9.143 ps    (1.83 u%)
    tran: time = 13.97 ns   (2.79 m%), step = 8.334 ps    (1.67 u%)
    tran: time = 13.98 ns    (2.8 m%), step = 8.735 ps    (1.75 u%)
    tran: time = 13.99 ns    (2.8 m%), step = 10.28 ps    (2.06 u%)
    tran: time = 14 ns       (2.8 m%), step = 9.655 ps    (1.93 u%)
    tran: time = 14.01 ns    (2.8 m%), step = 10.36 ps    (2.07 u%)
    tran: time = 14.02 ns    (2.8 m%), step = 8.077 ps    (1.62 u%)
    tran: time = 14.03 ns   (2.81 m%), step = 8.938 ps    (1.79 u%)
    tran: time = 14.03 ns   (2.81 m%), step = 7.574 ps    (1.51 u%)
    tran: time = 14.04 ns   (2.81 m%), step = 8.241 ps    (1.65 u%)
    tran: time = 14.05 ns   (2.81 m%), step = 7.909 ps    (1.58 u%)
    tran: time = 14.06 ns   (2.81 m%), step = 8.385 ps    (1.68 u%)
    tran: time = 14.07 ns   (2.81 m%), step = 7.562 ps    (1.51 u%)
    tran: time = 14.08 ns   (2.82 m%), step = 9.323 ps    (1.86 u%)
    tran: time = 14.08 ns   (2.82 m%), step = 8.665 ps    (1.73 u%)
    tran: time = 14.09 ns   (2.82 m%), step = 7.571 ps    (1.51 u%)
    tran: time = 14.1 ns    (2.82 m%), step = 10.17 ps    (2.03 u%)
    tran: time = 14.11 ns   (2.82 m%), step = 9.684 ps    (1.94 u%)
    tran: time = 14.12 ns   (2.82 m%), step = 9.867 ps    (1.97 u%)
    tran: time = 14.13 ns   (2.83 m%), step = 11.41 ps    (2.28 u%)
    tran: time = 14.14 ns   (2.83 m%), step = 9.23 ps     (1.85 u%)
    tran: time = 14.15 ns   (2.83 m%), step = 10.22 ps    (2.04 u%)
    tran: time = 14.16 ns   (2.83 m%), step = 10.66 ps    (2.13 u%)
    tran: time = 14.17 ns   (2.83 m%), step = 9.754 ps    (1.95 u%)
    tran: time = 14.18 ns   (2.84 m%), step = 9.557 ps    (1.91 u%)
    tran: time = 14.19 ns   (2.84 m%), step = 10.72 ps    (2.14 u%)
    tran: time = 14.2 ns    (2.84 m%), step = 10.32 ps    (2.06 u%)
    tran: time = 14.22 ns   (2.84 m%), step = 11.51 ps     (2.3 u%)
    tran: time = 14.23 ns   (2.85 m%), step = 10.99 ps     (2.2 u%)
    tran: time = 14.24 ns   (2.85 m%), step = 11.57 ps    (2.31 u%)
    tran: time = 14.25 ns   (2.85 m%), step = 10.78 ps    (2.16 u%)
    tran: time = 14.26 ns   (2.85 m%), step = 9.07 ps     (1.81 u%)
    tran: time = 14.27 ns   (2.85 m%), step = 9.38 ps     (1.88 u%)
    tran: time = 14.28 ns   (2.86 m%), step = 8.276 ps    (1.66 u%)
    tran: time = 14.28 ns   (2.86 m%), step = 9.142 ps    (1.83 u%)
    tran: time = 14.29 ns   (2.86 m%), step = 7.79 ps     (1.56 u%)
    tran: time = 14.3 ns    (2.86 m%), step = 8.358 ps    (1.67 u%)
    tran: time = 14.31 ns   (2.86 m%), step = 9.946 ps    (1.99 u%)
    tran: time = 14.32 ns   (2.86 m%), step = 9.331 ps    (1.87 u%)
    tran: time = 14.33 ns   (2.87 m%), step = 9.02 ps      (1.8 u%)
    tran: time = 14.34 ns   (2.87 m%), step = 8.209 ps    (1.64 u%)
    tran: time = 14.35 ns   (2.87 m%), step = 8.54 ps     (1.71 u%)
    tran: time = 14.36 ns   (2.87 m%), step = 9.398 ps    (1.88 u%)
    tran: time = 14.37 ns   (2.87 m%), step = 10.22 ps    (2.04 u%)
    tran: time = 14.38 ns   (2.88 m%), step = 9.782 ps    (1.96 u%)
    tran: time = 14.38 ns   (2.88 m%), step = 8.125 ps    (1.62 u%)
    tran: time = 14.39 ns   (2.88 m%), step = 9.458 ps    (1.89 u%)
    tran: time = 14.4 ns    (2.88 m%), step = 8.87 ps     (1.77 u%)
    tran: time = 14.41 ns   (2.88 m%), step = 7.847 ps    (1.57 u%)
    tran: time = 14.42 ns   (2.88 m%), step = 8.217 ps    (1.64 u%)
    tran: time = 14.43 ns   (2.89 m%), step = 7.264 ps    (1.45 u%)
    tran: time = 14.43 ns   (2.89 m%), step = 8.277 ps    (1.66 u%)
    tran: time = 14.44 ns   (2.89 m%), step = 9.989 ps       (2 u%)
    tran: time = 14.46 ns   (2.89 m%), step = 12.83 ps    (2.57 u%)
    tran: time = 14.47 ns   (2.89 m%), step = 12.22 ps    (2.44 u%)
    tran: time = 14.48 ns    (2.9 m%), step = 13.64 ps    (2.73 u%)
    tran: time = 14.49 ns    (2.9 m%), step = 11.19 ps    (2.24 u%)
    tran: time = 14.51 ns    (2.9 m%), step = 13.18 ps    (2.64 u%)
    tran: time = 14.52 ns    (2.9 m%), step = 11.17 ps    (2.23 u%)
    tran: time = 14.53 ns   (2.91 m%), step = 8.581 ps    (1.72 u%)
    tran: time = 14.53 ns   (2.91 m%), step = 8.581 ps    (1.72 u%)
    tran: time = 14.54 ns   (2.91 m%), step = 9.642 ps    (1.93 u%)
    tran: time = 14.55 ns   (2.91 m%), step = 10.01 ps       (2 u%)
    tran: time = 14.56 ns   (2.91 m%), step = 7.817 ps    (1.56 u%)
    tran: time = 14.57 ns   (2.91 m%), step = 10.23 ps    (2.05 u%)
    tran: time = 14.58 ns   (2.92 m%), step = 8.651 ps    (1.73 u%)
    tran: time = 14.59 ns   (2.92 m%), step = 8.651 ps    (1.73 u%)
    tran: time = 14.6 ns    (2.92 m%), step = 9.028 ps    (1.81 u%)
    tran: time = 14.61 ns   (2.92 m%), step = 10.39 ps    (2.08 u%)
    tran: time = 14.62 ns   (2.92 m%), step = 10.15 ps    (2.03 u%)
    tran: time = 14.64 ns   (2.93 m%), step = 15.83 ps    (3.17 u%)
    tran: time = 14.65 ns   (2.93 m%), step = 12.83 ps    (2.57 u%)
    tran: time = 14.66 ns   (2.93 m%), step = 11.46 ps    (2.29 u%)
    tran: time = 14.67 ns   (2.93 m%), step = 13.61 ps    (2.72 u%)
    tran: time = 14.69 ns   (2.94 m%), step = 13.24 ps    (2.65 u%)
    tran: time = 14.69 ns   (2.94 m%), step = 6.58 ps     (1.32 u%)
    tran: time = 14.7 ns    (2.94 m%), step = 2.129 ps     (426 n%)
    tran: time = 14.7 ns    (2.94 m%), step = 4.258 ps     (852 n%)
    tran: time = 14.71 ns   (2.94 m%), step = 8.516 ps     (1.7 u%)
    tran: time = 14.72 ns   (2.94 m%), step = 8.82 ps     (1.76 u%)
    tran: time = 14.73 ns   (2.95 m%), step = 9.294 ps    (1.86 u%)
    tran: time = 14.74 ns   (2.95 m%), step = 10.89 ps    (2.18 u%)
    tran: time = 14.75 ns   (2.95 m%), step = 9.901 ps    (1.98 u%)
    tran: time = 14.76 ns   (2.95 m%), step = 9.807 ps    (1.96 u%)
    tran: time = 14.77 ns   (2.95 m%), step = 9.036 ps    (1.81 u%)
    tran: time = 14.78 ns   (2.96 m%), step = 9.528 ps    (1.91 u%)
    tran: time = 14.78 ns   (2.96 m%), step = 8.874 ps    (1.77 u%)
    tran: time = 14.8 ns    (2.96 m%), step = 11.22 ps    (2.24 u%)
    tran: time = 14.81 ns   (2.96 m%), step = 11.14 ps    (2.23 u%)
    tran: time = 14.82 ns   (2.96 m%), step = 12.99 ps     (2.6 u%)
    tran: time = 14.83 ns   (2.97 m%), step = 15.32 ps    (3.06 u%)
    tran: time = 14.85 ns   (2.97 m%), step = 13.42 ps    (2.68 u%)
    tran: time = 14.87 ns   (2.97 m%), step = 20.29 ps    (4.06 u%)
    tran: time = 14.89 ns   (2.98 m%), step = 22.18 ps    (4.44 u%)
    tran: time = 14.91 ns   (2.98 m%), step = 20.77 ps    (4.15 u%)
    tran: time = 14.93 ns   (2.99 m%), step = 19.05 ps    (3.81 u%)
    tran: time = 14.95 ns   (2.99 m%), step = 22.08 ps    (4.42 u%)
    tran: time = 14.97 ns   (2.99 m%), step = 18.76 ps    (3.75 u%)
    tran: time = 15 ns         (3 m%), step = 24.16 ps    (4.83 u%)
    tran: time = 15.02 ns      (3 m%), step = 23.68 ps    (4.74 u%)
    tran: time = 15.04 ns   (3.01 m%), step = 18.75 ps    (3.75 u%)
    tran: time = 15.06 ns   (3.01 m%), step = 21.6 ps     (4.32 u%)
    tran: time = 15.08 ns   (3.02 m%), step = 18.31 ps    (3.66 u%)
    tran: time = 15.09 ns   (3.02 m%), step = 17.05 ps    (3.41 u%)
    tran: time = 15.11 ns   (3.02 m%), step = 16.16 ps    (3.23 u%)
    tran: time = 15.13 ns   (3.03 m%), step = 17.16 ps    (3.43 u%)
    tran: time = 15.14 ns   (3.03 m%), step = 15.35 ps    (3.07 u%)
    tran: time = 15.16 ns   (3.03 m%), step = 12.7 ps     (2.54 u%)
    tran: time = 15.17 ns   (3.03 m%), step = 10.66 ps    (2.13 u%)
    tran: time = 15.18 ns   (3.04 m%), step = 9.338 ps    (1.87 u%)
    tran: time = 15.18 ns   (3.04 m%), step = 8.785 ps    (1.76 u%)
    tran: time = 15.19 ns   (3.04 m%), step = 5.077 ps    (1.02 u%)
    tran: time = 15.2 ns    (3.04 m%), step = 5.077 ps    (1.02 u%)
    tran: time = 15.2 ns    (3.04 m%), step = 9.502 ps     (1.9 u%)
    tran: time = 15.21 ns   (3.04 m%), step = 9.118 ps    (1.82 u%)
    tran: time = 15.22 ns   (3.04 m%), step = 8.771 ps    (1.75 u%)
    tran: time = 15.23 ns   (3.05 m%), step = 7.817 ps    (1.56 u%)
    tran: time = 15.24 ns   (3.05 m%), step = 7.564 ps    (1.51 u%)
    tran: time = 15.24 ns   (3.05 m%), step = 6.114 ps    (1.22 u%)
    tran: time = 15.25 ns   (3.05 m%), step = 6.114 ps    (1.22 u%)
    tran: time = 15.26 ns   (3.05 m%), step = 7.383 ps    (1.48 u%)
    tran: time = 15.26 ns   (3.05 m%), step = 7.342 ps    (1.47 u%)
    tran: time = 15.27 ns   (3.05 m%), step = 8.672 ps    (1.73 u%)
    tran: time = 15.28 ns   (3.06 m%), step = 8.055 ps    (1.61 u%)
    tran: time = 15.29 ns   (3.06 m%), step = 7.96 ps     (1.59 u%)
    tran: time = 15.3 ns    (3.06 m%), step = 11.13 ps    (2.23 u%)
    tran: time = 15.31 ns   (3.06 m%), step = 10.24 ps    (2.05 u%)
    tran: time = 15.32 ns   (3.06 m%), step = 12.67 ps    (2.53 u%)
    tran: time = 15.34 ns   (3.07 m%), step = 14.15 ps    (2.83 u%)
    tran: time = 15.35 ns   (3.07 m%), step = 10.98 ps     (2.2 u%)
    tran: time = 15.36 ns   (3.07 m%), step = 11.57 ps    (2.31 u%)
    tran: time = 15.37 ns   (3.07 m%), step = 10.6 ps     (2.12 u%)
    tran: time = 15.38 ns   (3.08 m%), step = 13.02 ps     (2.6 u%)
    tran: time = 15.39 ns   (3.08 m%), step = 7.739 ps    (1.55 u%)
    tran: time = 15.41 ns   (3.08 m%), step = 14.57 ps    (2.91 u%)
    tran: time = 15.42 ns   (3.08 m%), step = 13.99 ps     (2.8 u%)
    tran: time = 15.43 ns   (3.09 m%), step = 13.33 ps    (2.67 u%)
    tran: time = 15.45 ns   (3.09 m%), step = 11.51 ps     (2.3 u%)
    tran: time = 15.46 ns   (3.09 m%), step = 10.89 ps    (2.18 u%)
    tran: time = 15.47 ns   (3.09 m%), step = 13.41 ps    (2.68 u%)
    tran: time = 15.48 ns    (3.1 m%), step = 14.66 ps    (2.93 u%)
    tran: time = 15.5 ns     (3.1 m%), step = 13.57 ps    (2.71 u%)
    tran: time = 15.51 ns    (3.1 m%), step = 13.35 ps    (2.67 u%)
    tran: time = 15.52 ns    (3.1 m%), step = 13.47 ps    (2.69 u%)
    tran: time = 15.54 ns   (3.11 m%), step = 11.77 ps    (2.35 u%)
    tran: time = 15.55 ns   (3.11 m%), step = 10.34 ps    (2.07 u%)
    tran: time = 15.56 ns   (3.11 m%), step = 13.1 ps     (2.62 u%)
    tran: time = 15.57 ns   (3.11 m%), step = 11.67 ps    (2.33 u%)
    tran: time = 15.58 ns   (3.12 m%), step = 10.68 ps    (2.14 u%)
    tran: time = 15.59 ns   (3.12 m%), step = 12.85 ps    (2.57 u%)
    tran: time = 15.61 ns   (3.12 m%), step = 10.37 ps    (2.07 u%)
    tran: time = 15.61 ns   (3.12 m%), step = 8.92 ps     (1.78 u%)
    tran: time = 15.62 ns   (3.12 m%), step = 9.034 ps    (1.81 u%)
    tran: time = 15.63 ns   (3.13 m%), step = 7.873 ps    (1.57 u%)
    tran: time = 15.64 ns   (3.13 m%), step = 9.176 ps    (1.84 u%)
    tran: time = 15.65 ns   (3.13 m%), step = 7.905 ps    (1.58 u%)
    tran: time = 15.66 ns   (3.13 m%), step = 8.876 ps    (1.78 u%)
    tran: time = 15.67 ns   (3.13 m%), step = 9.627 ps    (1.93 u%)
    tran: time = 15.68 ns   (3.14 m%), step = 9.217 ps    (1.84 u%)
    tran: time = 15.68 ns   (3.14 m%), step = 9.125 ps    (1.83 u%)
    tran: time = 15.69 ns   (3.14 m%), step = 9.572 ps    (1.91 u%)
    tran: time = 15.7 ns    (3.14 m%), step = 9.755 ps    (1.95 u%)
    tran: time = 15.71 ns   (3.14 m%), step = 10.32 ps    (2.06 u%)
    tran: time = 15.72 ns   (3.14 m%), step = 9.636 ps    (1.93 u%)
    tran: time = 15.73 ns   (3.15 m%), step = 9.743 ps    (1.95 u%)
    tran: time = 15.74 ns   (3.15 m%), step = 10.16 ps    (2.03 u%)
    tran: time = 15.75 ns   (3.15 m%), step = 9.728 ps    (1.95 u%)
    tran: time = 15.76 ns   (3.15 m%), step = 8.534 ps    (1.71 u%)
    tran: time = 15.77 ns   (3.15 m%), step = 7.646 ps    (1.53 u%)
    tran: time = 15.78 ns   (3.16 m%), step = 7.04 ps     (1.41 u%)
    tran: time = 15.78 ns   (3.16 m%), step = 7.526 ps    (1.51 u%)
    tran: time = 15.79 ns   (3.16 m%), step = 8.375 ps    (1.67 u%)
    tran: time = 15.8 ns    (3.16 m%), step = 10.38 ps    (2.08 u%)
    tran: time = 15.82 ns   (3.16 m%), step = 11.94 ps    (2.39 u%)
    tran: time = 15.83 ns   (3.17 m%), step = 13.87 ps    (2.77 u%)
    tran: time = 15.84 ns   (3.17 m%), step = 13.94 ps    (2.79 u%)
    tran: time = 15.86 ns   (3.17 m%), step = 12.9 ps     (2.58 u%)
    tran: time = 15.87 ns   (3.17 m%), step = 17.81 ps    (3.56 u%)
    tran: time = 15.88 ns   (3.18 m%), step = 8.914 ps    (1.78 u%)
    tran: time = 15.89 ns   (3.18 m%), step = 8.914 ps    (1.78 u%)
    tran: time = 15.9 ns    (3.18 m%), step = 7.053 ps    (1.41 u%)
    tran: time = 15.91 ns   (3.18 m%), step = 11.74 ps    (2.35 u%)
    tran: time = 15.92 ns   (3.18 m%), step = 10.29 ps    (2.06 u%)
    tran: time = 15.93 ns   (3.19 m%), step = 8.832 ps    (1.77 u%)
    tran: time = 15.94 ns   (3.19 m%), step = 8.541 ps    (1.71 u%)
    tran: time = 15.95 ns   (3.19 m%), step = 8.541 ps    (1.71 u%)
    tran: time = 15.96 ns   (3.19 m%), step = 8.931 ps    (1.79 u%)
    tran: time = 15.97 ns   (3.19 m%), step = 10.57 ps    (2.11 u%)
    tran: time = 15.98 ns    (3.2 m%), step = 11.23 ps    (2.25 u%)
    tran: time = 15.99 ns    (3.2 m%), step = 13.35 ps    (2.67 u%)
    tran: time = 16.01 ns    (3.2 m%), step = 16.3 ps     (3.26 u%)
    tran: time = 16.02 ns    (3.2 m%), step = 15.7 ps     (3.14 u%)
    tran: time = 16.04 ns   (3.21 m%), step = 12.7 ps     (2.54 u%)
    tran: time = 16.05 ns   (3.21 m%), step = 13.31 ps    (2.66 u%)
    tran: time = 16.05 ns   (3.21 m%), step = 3.275 ps     (655 n%)
    tran: time = 16.06 ns   (3.21 m%), step = 6.55 ps     (1.31 u%)
    tran: time = 16.07 ns   (3.21 m%), step = 12.64 ps    (2.53 u%)
    tran: time = 16.09 ns   (3.22 m%), step = 14.03 ps    (2.81 u%)
    tran: time = 16.1 ns    (3.22 m%), step = 13.99 ps     (2.8 u%)
    tran: time = 16.11 ns   (3.22 m%), step = 13.59 ps    (2.72 u%)
    tran: time = 16.13 ns   (3.23 m%), step = 12.63 ps    (2.53 u%)
    tran: time = 16.14 ns   (3.23 m%), step = 11.29 ps    (2.26 u%)
    tran: time = 16.15 ns   (3.23 m%), step = 11.73 ps    (2.35 u%)
    tran: time = 16.16 ns   (3.23 m%), step = 10.41 ps    (2.08 u%)
    tran: time = 16.17 ns   (3.23 m%), step = 13 ps        (2.6 u%)
    tran: time = 16.18 ns   (3.24 m%), step = 12.28 ps    (2.46 u%)
    tran: time = 16.2 ns    (3.24 m%), step = 13.99 ps     (2.8 u%)
    tran: time = 16.21 ns   (3.24 m%), step = 16.87 ps    (3.37 u%)
    tran: time = 16.23 ns   (3.25 m%), step = 17.5 ps      (3.5 u%)
    tran: time = 16.25 ns   (3.25 m%), step = 20.89 ps    (4.18 u%)
    tran: time = 16.28 ns   (3.26 m%), step = 23 ps        (4.6 u%)
    tran: time = 16.3 ns    (3.26 m%), step = 18.68 ps    (3.74 u%)
    tran: time = 16.32 ns   (3.26 m%), step = 22.76 ps    (4.55 u%)
    tran: time = 16.34 ns   (3.27 m%), step = 20.68 ps    (4.14 u%)
    tran: time = 16.36 ns   (3.27 m%), step = 22.33 ps    (4.47 u%)
    tran: time = 16.38 ns   (3.28 m%), step = 23.9 ps     (4.78 u%)
    tran: time = 16.4 ns    (3.28 m%), step = 20.26 ps    (4.05 u%)
    tran: time = 16.42 ns   (3.28 m%), step = 19.01 ps     (3.8 u%)
    tran: time = 16.44 ns   (3.29 m%), step = 18.43 ps    (3.69 u%)
    tran: time = 16.46 ns   (3.29 m%), step = 17.52 ps     (3.5 u%)
    tran: time = 16.48 ns    (3.3 m%), step = 16.19 ps    (3.24 u%)
    tran: time = 16.49 ns    (3.3 m%), step = 16.63 ps    (3.33 u%)
    tran: time = 16.51 ns    (3.3 m%), step = 15.77 ps    (3.15 u%)
    tran: time = 16.52 ns    (3.3 m%), step = 13.62 ps    (2.72 u%)
    tran: time = 16.53 ns   (3.31 m%), step = 11.19 ps    (2.24 u%)
    tran: time = 16.54 ns   (3.31 m%), step = 9.721 ps    (1.94 u%)
    tran: time = 16.55 ns   (3.31 m%), step = 4.459 ps     (892 n%)
    tran: time = 16.55 ns   (3.31 m%), step = 4.459 ps     (892 n%)
    tran: time = 16.56 ns   (3.31 m%), step = 6.904 ps    (1.38 u%)
    tran: time = 16.57 ns   (3.31 m%), step = 6.729 ps    (1.35 u%)
    tran: time = 16.57 ns   (3.31 m%), step = 7.9 ps      (1.58 u%)
    tran: time = 16.58 ns   (3.32 m%), step = 11.14 ps    (2.23 u%)
    tran: time = 16.6 ns    (3.32 m%), step = 10.5 ps      (2.1 u%)
    tran: time = 16.6 ns    (3.32 m%), step = 5.912 ps    (1.18 u%)
    tran: time = 16.61 ns   (3.32 m%), step = 5.912 ps    (1.18 u%)
    tran: time = 16.61 ns   (3.32 m%), step = 7.49 ps      (1.5 u%)
    tran: time = 16.62 ns   (3.32 m%), step = 7.369 ps    (1.47 u%)
    tran: time = 16.63 ns   (3.33 m%), step = 10.15 ps    (2.03 u%)
    tran: time = 16.64 ns   (3.33 m%), step = 11.57 ps    (2.31 u%)
    tran: time = 16.65 ns   (3.33 m%), step = 11.13 ps    (2.23 u%)
    tran: time = 16.67 ns   (3.33 m%), step = 11.84 ps    (2.37 u%)
    tran: time = 16.68 ns   (3.34 m%), step = 11.4 ps     (2.28 u%)
    tran: time = 16.69 ns   (3.34 m%), step = 12.28 ps    (2.46 u%)
    tran: time = 16.7 ns    (3.34 m%), step = 11.82 ps    (2.36 u%)
    tran: time = 16.71 ns   (3.34 m%), step = 11.11 ps    (2.22 u%)
    tran: time = 16.73 ns   (3.35 m%), step = 13.77 ps    (2.75 u%)
    tran: time = 16.74 ns   (3.35 m%), step = 10.65 ps    (2.13 u%)
    tran: time = 16.75 ns   (3.35 m%), step = 8.826 ps    (1.77 u%)
    tran: time = 16.76 ns   (3.35 m%), step = 13.03 ps    (2.61 u%)
    tran: time = 16.77 ns   (3.35 m%), step = 6.815 ps    (1.36 u%)
    tran: time = 16.78 ns   (3.36 m%), step = 13.03 ps    (2.61 u%)
    tran: time = 16.79 ns   (3.36 m%), step = 12.57 ps    (2.51 u%)
    tran: time = 16.8 ns    (3.36 m%), step = 12.22 ps    (2.44 u%)
    tran: time = 16.82 ns   (3.36 m%), step = 15.54 ps    (3.11 u%)
    tran: time = 16.83 ns   (3.37 m%), step = 11.32 ps    (2.26 u%)
    tran: time = 16.85 ns   (3.37 m%), step = 15.21 ps    (3.04 u%)
    tran: time = 16.86 ns   (3.37 m%), step = 14.6 ps     (2.92 u%)
    tran: time = 16.88 ns   (3.38 m%), step = 15.11 ps    (3.02 u%)
    tran: time = 16.89 ns   (3.38 m%), step = 14.58 ps    (2.92 u%)
    tran: time = 16.9 ns    (3.38 m%), step = 14.32 ps    (2.86 u%)
    tran: time = 16.92 ns   (3.38 m%), step = 13.26 ps    (2.65 u%)
    tran: time = 16.93 ns   (3.39 m%), step = 11.91 ps    (2.38 u%)
    tran: time = 16.94 ns   (3.39 m%), step = 13.14 ps    (2.63 u%)
    tran: time = 16.96 ns   (3.39 m%), step = 13.18 ps    (2.64 u%)
    tran: time = 16.97 ns   (3.39 m%), step = 11.39 ps    (2.28 u%)
    tran: time = 16.98 ns    (3.4 m%), step = 11.15 ps    (2.23 u%)
    tran: time = 16.99 ns    (3.4 m%), step = 8.881 ps    (1.78 u%)
    tran: time = 17 ns       (3.4 m%), step = 8.58 ps     (1.72 u%)
    tran: time = 17 ns       (3.4 m%), step = 7.976 ps     (1.6 u%)
    tran: time = 17.01 ns    (3.4 m%), step = 9.931 ps    (1.99 u%)
    tran: time = 17.02 ns    (3.4 m%), step = 9.138 ps    (1.83 u%)
    tran: time = 17.03 ns   (3.41 m%), step = 8.841 ps    (1.77 u%)
    tran: time = 17.04 ns   (3.41 m%), step = 8.961 ps    (1.79 u%)
    tran: time = 17.05 ns   (3.41 m%), step = 9.321 ps    (1.86 u%)
    tran: time = 17.06 ns   (3.41 m%), step = 8.893 ps    (1.78 u%)
    tran: time = 17.07 ns   (3.41 m%), step = 9.848 ps    (1.97 u%)
    tran: time = 17.08 ns   (3.42 m%), step = 8.779 ps    (1.76 u%)
    tran: time = 17.09 ns   (3.42 m%), step = 9.829 ps    (1.97 u%)
    tran: time = 17.1 ns    (3.42 m%), step = 10.4 ps     (2.08 u%)
    tran: time = 17.11 ns   (3.42 m%), step = 10.04 ps    (2.01 u%)
    tran: time = 17.12 ns   (3.42 m%), step = 7.856 ps    (1.57 u%)
    tran: time = 17.13 ns   (3.43 m%), step = 9.665 ps    (1.93 u%)
    tran: time = 17.13 ns   (3.43 m%), step = 8.236 ps    (1.65 u%)
    tran: time = 17.14 ns   (3.43 m%), step = 7.911 ps    (1.58 u%)
    tran: time = 17.15 ns   (3.43 m%), step = 7.403 ps    (1.48 u%)
    tran: time = 17.16 ns   (3.43 m%), step = 7.233 ps    (1.45 u%)
    tran: time = 17.16 ns   (3.43 m%), step = 7.894 ps    (1.58 u%)
    tran: time = 17.17 ns   (3.43 m%), step = 10.17 ps    (2.03 u%)
    tran: time = 17.18 ns   (3.44 m%), step = 9.135 ps    (1.83 u%)
    tran: time = 17.2 ns    (3.44 m%), step = 14.66 ps    (2.93 u%)
    tran: time = 17.21 ns   (3.44 m%), step = 14.33 ps    (2.87 u%)
    tran: time = 17.23 ns   (3.45 m%), step = 14.94 ps    (2.99 u%)
    tran: time = 17.24 ns   (3.45 m%), step = 14.1 ps     (2.82 u%)
    tran: time = 17.25 ns   (3.45 m%), step = 12.25 ps    (2.45 u%)
    tran: time = 17.27 ns   (3.45 m%), step = 12.25 ps    (2.45 u%)
    tran: time = 17.27 ns   (3.45 m%), step = 8.739 ps    (1.75 u%)
    tran: time = 17.29 ns   (3.46 m%), step = 12.9 ps     (2.58 u%)
    tran: time = 17.3 ns    (3.46 m%), step = 11.27 ps    (2.25 u%)
    tran: time = 17.31 ns   (3.46 m%), step = 9.595 ps    (1.92 u%)
    tran: time = 17.32 ns   (3.46 m%), step = 12.5 ps      (2.5 u%)
    tran: time = 17.33 ns   (3.47 m%), step = 10.2 ps     (2.04 u%)
    tran: time = 17.34 ns   (3.47 m%), step = 11.69 ps    (2.34 u%)
    tran: time = 17.36 ns   (3.47 m%), step = 12.38 ps    (2.48 u%)
    tran: time = 17.37 ns   (3.47 m%), step = 16.19 ps    (3.24 u%)
    tran: time = 17.39 ns   (3.48 m%), step = 16.89 ps    (3.38 u%)
    tran: time = 17.41 ns   (3.48 m%), step = 18.13 ps    (3.63 u%)
    tran: time = 17.42 ns   (3.48 m%), step = 14.4 ps     (2.88 u%)
    tran: time = 17.43 ns   (3.49 m%), step = 7.464 ps    (1.49 u%)
    tran: time = 17.44 ns   (3.49 m%), step = 14.39 ps    (2.88 u%)
    tran: time = 17.46 ns   (3.49 m%), step = 14.27 ps    (2.85 u%)
    tran: time = 17.47 ns   (3.49 m%), step = 16.6 ps     (3.32 u%)
    tran: time = 17.49 ns    (3.5 m%), step = 15.42 ps    (3.08 u%)
    tran: time = 17.5 ns     (3.5 m%), step = 13.15 ps    (2.63 u%)
    tran: time = 17.52 ns    (3.5 m%), step = 13.54 ps    (2.71 u%)
    tran: time = 17.53 ns   (3.51 m%), step = 11.07 ps    (2.21 u%)
    tran: time = 17.54 ns   (3.51 m%), step = 11.03 ps    (2.21 u%)
    tran: time = 17.55 ns   (3.51 m%), step = 12.6 ps     (2.52 u%)
    tran: time = 17.56 ns   (3.51 m%), step = 12.09 ps    (2.42 u%)
    tran: time = 17.58 ns   (3.52 m%), step = 13.06 ps    (2.61 u%)
    tran: time = 17.59 ns   (3.52 m%), step = 18.47 ps    (3.69 u%)
    tran: time = 17.61 ns   (3.52 m%), step = 18.32 ps    (3.66 u%)
    tran: time = 17.63 ns   (3.53 m%), step = 21.2 ps     (4.24 u%)
    tran: time = 17.66 ns   (3.53 m%), step = 21.44 ps    (4.29 u%)
    tran: time = 17.68 ns   (3.54 m%), step = 19.95 ps    (3.99 u%)
    tran: time = 17.7 ns    (3.54 m%), step = 22.61 ps    (4.52 u%)
    tran: time = 17.72 ns   (3.54 m%), step = 20.53 ps    (4.11 u%)
    tran: time = 17.74 ns   (3.55 m%), step = 22.95 ps    (4.59 u%)
    tran: time = 17.77 ns   (3.55 m%), step = 23.92 ps    (4.78 u%)
    tran: time = 17.79 ns   (3.56 m%), step = 20.53 ps    (4.11 u%)
    tran: time = 17.8 ns    (3.56 m%), step = 18.45 ps    (3.69 u%)
    tran: time = 17.82 ns   (3.56 m%), step = 19.37 ps    (3.87 u%)
    tran: time = 17.84 ns   (3.57 m%), step = 17.35 ps    (3.47 u%)
    tran: time = 17.86 ns   (3.57 m%), step = 16.54 ps    (3.31 u%)
    tran: time = 17.87 ns   (3.57 m%), step = 17 ps        (3.4 u%)
    tran: time = 17.89 ns   (3.58 m%), step = 16.43 ps    (3.29 u%)
    tran: time = 17.9 ns    (3.58 m%), step = 11.44 ps    (2.29 u%)
    tran: time = 17.91 ns   (3.58 m%), step = 11.49 ps     (2.3 u%)
    tran: time = 17.92 ns   (3.58 m%), step = 7.404 ps    (1.48 u%)
    tran: time = 17.93 ns   (3.59 m%), step = 7.404 ps    (1.48 u%)
    tran: time = 17.94 ns   (3.59 m%), step = 8.712 ps    (1.74 u%)
    tran: time = 17.95 ns   (3.59 m%), step = 8.261 ps    (1.65 u%)
    tran: time = 17.96 ns   (3.59 m%), step = 9.862 ps    (1.97 u%)
    tran: time = 17.97 ns   (3.59 m%), step = 11.47 ps    (2.29 u%)
    tran: time = 17.98 ns    (3.6 m%), step = 8.348 ps    (1.67 u%)
    tran: time = 17.98 ns    (3.6 m%), step = 8.348 ps    (1.67 u%)
    tran: time = 17.99 ns    (3.6 m%), step = 7.452 ps    (1.49 u%)
    tran: time = 18 ns       (3.6 m%), step = 10.1 ps     (2.02 u%)
    tran: time = 18.01 ns    (3.6 m%), step = 8.572 ps    (1.71 u%)
    tran: time = 18.02 ns    (3.6 m%), step = 12.2 ps     (2.44 u%)
    tran: time = 18.03 ns   (3.61 m%), step = 11.49 ps     (2.3 u%)
    tran: time = 18.04 ns   (3.61 m%), step = 11.44 ps    (2.29 u%)
    tran: time = 18.06 ns   (3.61 m%), step = 10.26 ps    (2.05 u%)
    tran: time = 18.07 ns   (3.61 m%), step = 12.34 ps    (2.47 u%)
    tran: time = 18.08 ns   (3.62 m%), step = 11.9 ps     (2.38 u%)
    tran: time = 18.09 ns   (3.62 m%), step = 12.25 ps    (2.45 u%)
    tran: time = 18.1 ns    (3.62 m%), step = 12.49 ps     (2.5 u%)
    tran: time = 18.11 ns   (3.62 m%), step = 10.5 ps      (2.1 u%)
    tran: time = 18.12 ns   (3.62 m%), step = 8.756 ps    (1.75 u%)
    tran: time = 18.14 ns   (3.63 m%), step = 12.75 ps    (2.55 u%)
    tran: time = 18.14 ns   (3.63 m%), step = 8.858 ps    (1.77 u%)
    tran: time = 18.16 ns   (3.63 m%), step = 14.39 ps    (2.88 u%)
    tran: time = 18.17 ns   (3.63 m%), step = 14.38 ps    (2.88 u%)
    tran: time = 18.19 ns   (3.64 m%), step = 13.76 ps    (2.75 u%)
    tran: time = 18.2 ns    (3.64 m%), step = 17.08 ps    (3.42 u%)
    tran: time = 18.22 ns   (3.64 m%), step = 12.48 ps     (2.5 u%)
    tran: time = 18.23 ns   (3.65 m%), step = 14.51 ps     (2.9 u%)
    tran: time = 18.25 ns   (3.65 m%), step = 15.7 ps     (3.14 u%)
    tran: time = 18.26 ns   (3.65 m%), step = 13.99 ps     (2.8 u%)
    tran: time = 18.27 ns   (3.65 m%), step = 12.99 ps     (2.6 u%)
    tran: time = 18.29 ns   (3.66 m%), step = 12.5 ps      (2.5 u%)
    tran: time = 18.3 ns    (3.66 m%), step = 11.94 ps    (2.39 u%)
    tran: time = 18.31 ns   (3.66 m%), step = 12.87 ps    (2.57 u%)
    tran: time = 18.32 ns   (3.66 m%), step = 11.81 ps    (2.36 u%)
    tran: time = 18.33 ns   (3.67 m%), step = 10.29 ps    (2.06 u%)
    tran: time = 18.35 ns   (3.67 m%), step = 11.81 ps    (2.36 u%)
    tran: time = 18.36 ns   (3.67 m%), step = 10 ps          (2 u%)
    tran: time = 18.36 ns   (3.67 m%), step = 8.559 ps    (1.71 u%)
    tran: time = 18.37 ns   (3.67 m%), step = 7.861 ps    (1.57 u%)
    tran: time = 18.38 ns   (3.68 m%), step = 8.636 ps    (1.73 u%)
    tran: time = 18.39 ns   (3.68 m%), step = 9.355 ps    (1.87 u%)
    tran: time = 18.4 ns    (3.68 m%), step = 8.987 ps     (1.8 u%)
    tran: time = 18.41 ns   (3.68 m%), step = 8.421 ps    (1.68 u%)
    tran: time = 18.42 ns   (3.68 m%), step = 8.667 ps    (1.73 u%)
    tran: time = 18.43 ns   (3.69 m%), step = 10.14 ps    (2.03 u%)
    tran: time = 18.44 ns   (3.69 m%), step = 9.329 ps    (1.87 u%)
    tran: time = 18.44 ns   (3.69 m%), step = 9.461 ps    (1.89 u%)
    tran: time = 18.45 ns   (3.69 m%), step = 9.242 ps    (1.85 u%)
    tran: time = 18.46 ns   (3.69 m%), step = 9.685 ps    (1.94 u%)
    tran: time = 18.47 ns   (3.69 m%), step = 10.09 ps    (2.02 u%)
    tran: time = 18.48 ns    (3.7 m%), step = 11.05 ps    (2.21 u%)
    tran: time = 18.49 ns    (3.7 m%), step = 8.183 ps    (1.64 u%)
    tran: time = 18.5 ns     (3.7 m%), step = 9.448 ps    (1.89 u%)
    tran: time = 18.51 ns    (3.7 m%), step = 8.428 ps    (1.69 u%)
    tran: time = 18.52 ns    (3.7 m%), step = 7.907 ps    (1.58 u%)
    tran: time = 18.53 ns   (3.71 m%), step = 7.475 ps     (1.5 u%)
    tran: time = 18.53 ns   (3.71 m%), step = 7.249 ps    (1.45 u%)
    tran: time = 18.54 ns   (3.71 m%), step = 7.954 ps    (1.59 u%)
    tran: time = 18.55 ns   (3.71 m%), step = 10.66 ps    (2.13 u%)
    tran: time = 18.56 ns   (3.71 m%), step = 10.88 ps    (2.18 u%)
    tran: time = 18.58 ns   (3.72 m%), step = 15.36 ps    (3.07 u%)
    tran: time = 18.59 ns   (3.72 m%), step = 15.3 ps     (3.06 u%)
    tran: time = 18.61 ns   (3.72 m%), step = 14.61 ps    (2.92 u%)
    tran: time = 18.63 ns   (3.73 m%), step = 18.64 ps    (3.73 u%)
    tran: time = 18.64 ns   (3.73 m%), step = 8.949 ps    (1.79 u%)
    tran: time = 18.64 ns   (3.73 m%), step = 8.949 ps    (1.79 u%)
    tran: time = 18.65 ns   (3.73 m%), step = 6.895 ps    (1.38 u%)
    tran: time = 18.66 ns   (3.73 m%), step = 10.71 ps    (2.14 u%)
    tran: time = 18.67 ns   (3.73 m%), step = 10.43 ps    (2.09 u%)
    tran: time = 18.68 ns   (3.74 m%), step = 8.803 ps    (1.76 u%)
    tran: time = 18.69 ns   (3.74 m%), step = 9.083 ps    (1.82 u%)
    tran: time = 18.7 ns    (3.74 m%), step = 9.083 ps    (1.82 u%)
    tran: time = 18.71 ns   (3.74 m%), step = 8.958 ps    (1.79 u%)
    tran: time = 18.72 ns   (3.74 m%), step = 10.69 ps    (2.14 u%)
    tran: time = 18.73 ns   (3.75 m%), step = 11.24 ps    (2.25 u%)
    tran: time = 18.74 ns   (3.75 m%), step = 13 ps        (2.6 u%)
    tran: time = 18.76 ns   (3.75 m%), step = 15.73 ps    (3.15 u%)
    tran: time = 18.78 ns   (3.76 m%), step = 15.52 ps     (3.1 u%)
    tran: time = 18.79 ns   (3.76 m%), step = 12.47 ps    (2.49 u%)
    tran: time = 18.8 ns    (3.76 m%), step = 13.07 ps    (2.61 u%)
    tran: time = 18.81 ns   (3.76 m%), step = 5.837 ps    (1.17 u%)
    tran: time = 18.82 ns   (3.76 m%), step = 11.67 ps    (2.33 u%)
    tran: time = 18.83 ns   (3.77 m%), step = 13.48 ps     (2.7 u%)
    tran: time = 18.85 ns   (3.77 m%), step = 16.07 ps    (3.21 u%)
    tran: time = 18.86 ns   (3.77 m%), step = 14.46 ps    (2.89 u%)
    tran: time = 18.87 ns   (3.77 m%), step = 12.7 ps     (2.54 u%)
    tran: time = 18.89 ns   (3.78 m%), step = 13.38 ps    (2.68 u%)
    tran: time = 18.9 ns    (3.78 m%), step = 9.803 ps    (1.96 u%)
    tran: time = 18.91 ns   (3.78 m%), step = 11.12 ps    (2.22 u%)
    tran: time = 18.92 ns   (3.78 m%), step = 12.84 ps    (2.57 u%)
    tran: time = 18.93 ns   (3.79 m%), step = 11.85 ps    (2.37 u%)
    tran: time = 18.95 ns   (3.79 m%), step = 15.01 ps       (3 u%)
    tran: time = 18.96 ns   (3.79 m%), step = 14.31 ps    (2.86 u%)
    tran: time = 18.98 ns    (3.8 m%), step = 18.83 ps    (3.77 u%)
    tran: time = 19 ns       (3.8 m%), step = 22.16 ps    (4.43 u%)
    tran: time = 19.02 ns    (3.8 m%), step = 20.51 ps     (4.1 u%)
    tran: time = 19.04 ns   (3.81 m%), step = 18.31 ps    (3.66 u%)
    tran: time = 19.07 ns   (3.81 m%), step = 22.5 ps      (4.5 u%)
    tran: time = 19.09 ns   (3.82 m%), step = 22.46 ps    (4.49 u%)
    tran: time = 19.11 ns   (3.82 m%), step = 19.99 ps       (4 u%)
    tran: time = 19.13 ns   (3.83 m%), step = 23.65 ps    (4.73 u%)
    tran: time = 19.15 ns   (3.83 m%), step = 20.85 ps    (4.17 u%)
    tran: time = 19.17 ns   (3.83 m%), step = 19.48 ps     (3.9 u%)
    tran: time = 19.19 ns   (3.84 m%), step = 18 ps        (3.6 u%)
    tran: time = 19.21 ns   (3.84 m%), step = 17.9 ps     (3.58 u%)
    tran: time = 19.22 ns   (3.84 m%), step = 16.4 ps     (3.28 u%)
    tran: time = 19.24 ns   (3.85 m%), step = 14.89 ps    (2.98 u%)
    tran: time = 19.25 ns   (3.85 m%), step = 15.65 ps    (3.13 u%)
    tran: time = 19.27 ns   (3.85 m%), step = 14.58 ps    (2.92 u%)
    tran: time = 19.28 ns   (3.86 m%), step = 11.95 ps    (2.39 u%)
    tran: time = 19.29 ns   (3.86 m%), step = 10.08 ps    (2.02 u%)
    tran: time = 19.3 ns    (3.86 m%), step = 8.861 ps    (1.77 u%)
    tran: time = 19.31 ns   (3.86 m%), step = 6.254 ps    (1.25 u%)
    tran: time = 19.32 ns   (3.86 m%), step = 8.876 ps    (1.78 u%)
    tran: time = 19.32 ns   (3.86 m%), step = 8.188 ps    (1.64 u%)
    tran: time = 19.33 ns   (3.87 m%), step = 8.86 ps     (1.77 u%)
    tran: time = 19.34 ns   (3.87 m%), step = 10.09 ps    (2.02 u%)
    tran: time = 19.35 ns   (3.87 m%), step = 9.248 ps    (1.85 u%)
    tran: time = 19.36 ns   (3.87 m%), step = 4.869 ps     (974 n%)
    tran: time = 19.36 ns   (3.87 m%), step = 4.869 ps     (974 n%)
    tran: time = 19.37 ns   (3.87 m%), step = 7.305 ps    (1.46 u%)
    tran: time = 19.38 ns   (3.88 m%), step = 6.834 ps    (1.37 u%)
    tran: time = 19.39 ns   (3.88 m%), step = 10.45 ps    (2.09 u%)
    tran: time = 19.4 ns    (3.88 m%), step = 11.51 ps     (2.3 u%)
    tran: time = 19.41 ns   (3.88 m%), step = 11.88 ps    (2.38 u%)
    tran: time = 19.42 ns   (3.88 m%), step = 11.55 ps    (2.31 u%)
    tran: time = 19.43 ns   (3.89 m%), step = 10.52 ps     (2.1 u%)
    tran: time = 19.44 ns   (3.89 m%), step = 13.19 ps    (2.64 u%)
    tran: time = 19.46 ns   (3.89 m%), step = 11.93 ps    (2.39 u%)
    tran: time = 19.47 ns   (3.89 m%), step = 11.27 ps    (2.25 u%)
    tran: time = 19.48 ns    (3.9 m%), step = 13.93 ps    (2.79 u%)
    tran: time = 19.49 ns    (3.9 m%), step = 10.74 ps    (2.15 u%)
    tran: time = 19.5 ns     (3.9 m%), step = 8.911 ps    (1.78 u%)
    tran: time = 19.51 ns    (3.9 m%), step = 13.3 ps     (2.66 u%)
    tran: time = 19.52 ns    (3.9 m%), step = 5.305 ps    (1.06 u%)
    tran: time = 19.53 ns   (3.91 m%), step = 10.61 ps    (2.12 u%)
    tran: time = 19.54 ns   (3.91 m%), step = 11.95 ps    (2.39 u%)
    tran: time = 19.55 ns   (3.91 m%), step = 12.32 ps    (2.46 u%)
    tran: time = 19.57 ns   (3.91 m%), step = 11.55 ps    (2.31 u%)
    tran: time = 19.58 ns   (3.92 m%), step = 10.43 ps    (2.09 u%)
    tran: time = 19.59 ns   (3.92 m%), step = 15.33 ps    (3.07 u%)
    tran: time = 19.6 ns    (3.92 m%), step = 11.83 ps    (2.37 u%)
    tran: time = 19.62 ns   (3.92 m%), step = 15.02 ps       (3 u%)
    tran: time = 19.63 ns   (3.93 m%), step = 14.33 ps    (2.87 u%)
    tran: time = 19.65 ns   (3.93 m%), step = 13 ps        (2.6 u%)
    tran: time = 19.66 ns   (3.93 m%), step = 13.64 ps    (2.73 u%)
    tran: time = 19.67 ns   (3.93 m%), step = 12 ps        (2.4 u%)
    tran: time = 19.68 ns   (3.94 m%), step = 12.18 ps    (2.44 u%)
    tran: time = 19.7 ns    (3.94 m%), step = 12.45 ps    (2.49 u%)
    tran: time = 19.71 ns   (3.94 m%), step = 12.94 ps    (2.59 u%)
    tran: time = 19.72 ns   (3.94 m%), step = 11.26 ps    (2.25 u%)
    tran: time = 19.73 ns   (3.95 m%), step = 10.72 ps    (2.14 u%)
    tran: time = 19.74 ns   (3.95 m%), step = 8.725 ps    (1.74 u%)
    tran: time = 19.75 ns   (3.95 m%), step = 8.341 ps    (1.67 u%)
    tran: time = 19.76 ns   (3.95 m%), step = 7.986 ps     (1.6 u%)
    tran: time = 19.77 ns   (3.95 m%), step = 8.785 ps    (1.76 u%)
    tran: time = 19.77 ns   (3.95 m%), step = 8.604 ps    (1.72 u%)
    tran: time = 19.78 ns   (3.96 m%), step = 7.595 ps    (1.52 u%)
    tran: time = 19.79 ns   (3.96 m%), step = 8.129 ps    (1.63 u%)
    tran: time = 19.8 ns    (3.96 m%), step = 9.52 ps      (1.9 u%)
    tran: time = 19.81 ns   (3.96 m%), step = 8.826 ps    (1.77 u%)
    tran: time = 19.82 ns   (3.96 m%), step = 9.098 ps    (1.82 u%)
    tran: time = 19.83 ns   (3.97 m%), step = 9.999 ps       (2 u%)
    tran: time = 19.84 ns   (3.97 m%), step = 9.819 ps    (1.96 u%)
    tran: time = 19.85 ns   (3.97 m%), step = 10.9 ps     (2.18 u%)
    tran: time = 19.86 ns   (3.97 m%), step = 9.734 ps    (1.95 u%)
    tran: time = 19.87 ns   (3.97 m%), step = 7.683 ps    (1.54 u%)
    tran: time = 19.87 ns   (3.97 m%), step = 9.286 ps    (1.86 u%)
    tran: time = 19.88 ns   (3.98 m%), step = 7.716 ps    (1.54 u%)
    tran: time = 19.89 ns   (3.98 m%), step = 7.609 ps    (1.52 u%)
    tran: time = 19.9 ns    (3.98 m%), step = 7.292 ps    (1.46 u%)
    tran: time = 19.9 ns    (3.98 m%), step = 6.946 ps    (1.39 u%)
    tran: time = 19.91 ns   (3.98 m%), step = 8.351 ps    (1.67 u%)
    tran: time = 19.92 ns   (3.98 m%), step = 8.218 ps    (1.64 u%)
    tran: time = 19.93 ns   (3.99 m%), step = 10.9 ps     (2.18 u%)
    tran: time = 19.94 ns   (3.99 m%), step = 8.201 ps    (1.64 u%)
    tran: time = 19.95 ns   (3.99 m%), step = 11.24 ps    (2.25 u%)
    tran: time = 19.96 ns   (3.99 m%), step = 11.24 ps    (2.25 u%)
    tran: time = 19.97 ns   (3.99 m%), step = 11.6 ps     (2.32 u%)
    tran: time = 19.99 ns      (4 m%), step = 16.15 ps    (3.23 u%)
    tran: time = 20.01 ns      (4 m%), step = 15.51 ps     (3.1 u%)
    tran: time = 20.01 ns      (4 m%), step = 7.222 ps    (1.44 u%)
    tran: time = 20.02 ns      (4 m%), step = 7.222 ps    (1.44 u%)
    tran: time = 20.03 ns   (4.01 m%), step = 8.275 ps    (1.65 u%)
    tran: time = 20.04 ns   (4.01 m%), step = 8.957 ps    (1.79 u%)
    tran: time = 20.05 ns   (4.01 m%), step = 8.262 ps    (1.65 u%)
    tran: time = 20.06 ns   (4.01 m%), step = 16.52 ps     (3.3 u%)
    tran: time = 20.07 ns   (4.01 m%), step = 6.491 ps     (1.3 u%)
    tran: time = 20.08 ns   (4.02 m%), step = 6.491 ps     (1.3 u%)
    tran: time = 20.08 ns   (4.02 m%), step = 8.439 ps    (1.69 u%)
    tran: time = 20.09 ns   (4.02 m%), step = 8.753 ps    (1.75 u%)
    tran: time = 20.1 ns    (4.02 m%), step = 9.253 ps    (1.85 u%)
    tran: time = 20.12 ns   (4.02 m%), step = 14.98 ps       (3 u%)
    tran: time = 20.13 ns   (4.03 m%), step = 16.13 ps    (3.23 u%)
    tran: time = 20.15 ns   (4.03 m%), step = 17 ps        (3.4 u%)
    tran: time = 20.17 ns   (4.03 m%), step = 15.44 ps    (3.09 u%)
    tran: time = 20.18 ns   (4.04 m%), step = 16.95 ps    (3.39 u%)
    tran: time = 20.19 ns   (4.04 m%), step = 3.473 ps     (695 n%)
    tran: time = 20.19 ns   (4.04 m%), step = 6.945 ps    (1.39 u%)
    tran: time = 20.2 ns    (4.04 m%), step = 9.286 ps    (1.86 u%)
    tran: time = 20.21 ns   (4.04 m%), step = 9.533 ps    (1.91 u%)
    tran: time = 20.22 ns   (4.04 m%), step = 12.47 ps    (2.49 u%)
    tran: time = 20.24 ns   (4.05 m%), step = 12.96 ps    (2.59 u%)
    tran: time = 20.25 ns   (4.05 m%), step = 14.53 ps    (2.91 u%)
    tran: time = 20.27 ns   (4.05 m%), step = 14.73 ps    (2.95 u%)
    tran: time = 20.28 ns   (4.06 m%), step = 12.6 ps     (2.52 u%)
    tran: time = 20.29 ns   (4.06 m%), step = 11.72 ps    (2.34 u%)
    tran: time = 20.3 ns    (4.06 m%), step = 9.805 ps    (1.96 u%)
    tran: time = 20.31 ns   (4.06 m%), step = 10.77 ps    (2.15 u%)
    tran: time = 20.32 ns   (4.06 m%), step = 10.11 ps    (2.02 u%)
    tran: time = 20.33 ns   (4.07 m%), step = 11.8 ps     (2.36 u%)
    tran: time = 20.34 ns   (4.07 m%), step = 11.66 ps    (2.33 u%)
    tran: time = 20.36 ns   (4.07 m%), step = 14.13 ps    (2.83 u%)
    tran: time = 20.37 ns   (4.07 m%), step = 16.22 ps    (3.24 u%)
    tran: time = 20.39 ns   (4.08 m%), step = 17.73 ps    (3.55 u%)
    tran: time = 20.41 ns   (4.08 m%), step = 17.51 ps     (3.5 u%)
    tran: time = 20.43 ns   (4.09 m%), step = 18.86 ps    (3.77 u%)
    tran: time = 20.45 ns   (4.09 m%), step = 22.06 ps    (4.41 u%)
    tran: time = 20.47 ns   (4.09 m%), step = 23.91 ps    (4.78 u%)
    tran: time = 20.5 ns     (4.1 m%), step = 26.52 ps     (5.3 u%)
    tran: time = 20.52 ns    (4.1 m%), step = 21.92 ps    (4.38 u%)
[...]
    tran: time = 53.66 ns   (10.7 m%), step = 10.2 ps     (2.04 u%)
    tran: time = 53.67 ns   (10.7 m%), step = 8.348 ps    (1.67 u%)
    tran: time = 53.68 ns   (10.7 m%), step = 9.632 ps    (1.93 u%)
    tran: time = 53.69 ns   (10.7 m%), step = 8.564 ps    (1.71 u%)
    tran: time = 53.7 ns    (10.7 m%), step = 8.177 ps    (1.64 u%)
    tran: time = 53.71 ns   (10.7 m%), step = 6.949 ps    (1.39 u%)
    tran: time = 53.71 ns   (10.7 m%), step = 6.538 ps    (1.31 u%)
    tran: time = 53.72 ns   (10.7 m%), step = 6.778 ps    (1.36 u%)
    tran: time = 53.73 ns   (10.7 m%), step = 8.15 ps     (1.63 u%)
    tran: time = 53.74 ns   (10.7 m%), step = 8.316 ps    (1.66 u%)
    tran: time = 53.75 ns   (10.7 m%), step = 8.985 ps     (1.8 u%)
    tran: time = 53.76 ns   (10.8 m%), step = 10.06 ps    (2.01 u%)
    tran: time = 53.77 ns   (10.8 m%), step = 10.96 ps    (2.19 u%)
    tran: time = 53.78 ns   (10.8 m%), step = 12.89 ps    (2.58 u%)
    tran: time = 53.79 ns   (10.8 m%), step = 9.767 ps    (1.95 u%)
    tran: time = 53.8 ns    (10.8 m%), step = 12.53 ps    (2.51 u%)
    tran: time = 53.81 ns   (10.8 m%), step = 10.64 ps    (2.13 u%)
    tran: time = 53.82 ns   (10.8 m%), step = 9.026 ps    (1.81 u%)
    tran: time = 53.83 ns   (10.8 m%), step = 9.026 ps    (1.81 u%)
    tran: time = 53.84 ns   (10.8 m%), step = 11.53 ps    (2.31 u%)
    tran: time = 53.85 ns   (10.8 m%), step = 11.61 ps    (2.32 u%)
    tran: time = 53.87 ns   (10.8 m%), step = 14.83 ps    (2.97 u%)
    tran: time = 53.88 ns   (10.8 m%), step = 8.517 ps     (1.7 u%)
    tran: time = 53.89 ns   (10.8 m%), step = 8.517 ps     (1.7 u%)
    tran: time = 53.89 ns   (10.8 m%), step = 9.591 ps    (1.92 u%)
    tran: time = 53.91 ns   (10.8 m%), step = 10.22 ps    (2.04 u%)
    tran: time = 53.92 ns   (10.8 m%), step = 11.13 ps    (2.23 u%)
    tran: time = 53.93 ns   (10.8 m%), step = 11.88 ps    (2.38 u%)
    tran: time = 53.94 ns   (10.8 m%), step = 11.07 ps    (2.21 u%)
    tran: time = 53.95 ns   (10.8 m%), step = 14.26 ps    (2.85 u%)
    tran: time = 53.97 ns   (10.8 m%), step = 12.66 ps    (2.53 u%)
    tran: time = 53.98 ns   (10.8 m%), step = 12.72 ps    (2.54 u%)
    tran: time = 53.99 ns   (10.8 m%), step = 12.54 ps    (2.51 u%)
    tran: time = 54 ns      (10.8 m%), step = 12.89 ps    (2.58 u%)
    tran: time = 54.02 ns   (10.8 m%), step = 16.09 ps    (3.22 u%)
    tran: time = 54.04 ns   (10.8 m%), step = 16.87 ps    (3.37 u%)
    tran: time = 54.05 ns   (10.8 m%), step = 14.61 ps    (2.92 u%)
    tran: time = 54.07 ns   (10.8 m%), step = 16.36 ps    (3.27 u%)
    tran: time = 54.08 ns   (10.8 m%), step = 12.96 ps    (2.59 u%)
    tran: time = 54.1 ns    (10.8 m%), step = 14.64 ps    (2.93 u%)
    tran: time = 54.11 ns   (10.8 m%), step = 14.5 ps      (2.9 u%)
    tran: time = 54.13 ns   (10.8 m%), step = 14.86 ps    (2.97 u%)
    tran: time = 54.14 ns   (10.8 m%), step = 16.16 ps    (3.23 u%)
    tran: time = 54.16 ns   (10.8 m%), step = 16.25 ps    (3.25 u%)
    tran: time = 54.17 ns   (10.8 m%), step = 14.21 ps    (2.84 u%)
    tran: time = 54.18 ns   (10.8 m%), step = 12.8 ps     (2.56 u%)
    tran: time = 54.19 ns   (10.8 m%), step = 10.32 ps    (2.06 u%)
    tran: time = 54.21 ns   (10.8 m%), step = 11.75 ps    (2.35 u%)
    tran: time = 54.22 ns   (10.8 m%), step = 12.42 ps    (2.48 u%)
    tran: time = 54.23 ns   (10.8 m%), step = 12.67 ps    (2.53 u%)
    tran: time = 54.25 ns   (10.8 m%), step = 13.83 ps    (2.77 u%)
    tran: time = 54.26 ns   (10.9 m%), step = 14.33 ps    (2.87 u%)
    tran: time = 54.28 ns   (10.9 m%), step = 18.69 ps    (3.74 u%)
    tran: time = 54.3 ns    (10.9 m%), step = 19.1 ps     (3.82 u%)
    tran: time = 54.32 ns   (10.9 m%), step = 22.64 ps    (4.53 u%)
    tran: time = 54.35 ns   (10.9 m%), step = 28.9 ps     (5.78 u%)
    tran: time = 54.38 ns   (10.9 m%), step = 25.99 ps     (5.2 u%)
    tran: time = 54.4 ns    (10.9 m%), step = 22.71 ps    (4.54 u%)
    tran: time = 54.42 ns   (10.9 m%), step = 23.54 ps    (4.71 u%)
    tran: time = 54.45 ns   (10.9 m%), step = 23.83 ps    (4.77 u%)
    tran: time = 54.47 ns   (10.9 m%), step = 20.11 ps    (4.02 u%)
    tran: time = 54.48 ns   (10.9 m%), step = 12.98 ps     (2.6 u%)
    tran: time = 54.49 ns   (10.9 m%), step = 12.98 ps     (2.6 u%)
    tran: time = 54.5 ns    (10.9 m%), step = 9.79 ps     (1.96 u%)
    tran: time = 54.51 ns   (10.9 m%), step = 11.2 ps     (2.24 u%)
    tran: time = 54.52 ns   (10.9 m%), step = 9.574 ps    (1.91 u%)
    tran: time = 54.54 ns   (10.9 m%), step = 13.76 ps    (2.75 u%)
    tran: time = 54.54 ns   (10.9 m%), step = 5.34 ps     (1.07 u%)
    tran: time = 54.55 ns   (10.9 m%), step = 5.34 ps     (1.07 u%)
    tran: time = 54.55 ns   (10.9 m%), step = 4.173 ps     (835 n%)
    tran: time = 54.56 ns   (10.9 m%), step = 6.249 ps    (1.25 u%)
    tran: time = 54.56 ns   (10.9 m%), step = 6.283 ps    (1.26 u%)
    tran: time = 54.57 ns   (10.9 m%), step = 5.713 ps    (1.14 u%)
    tran: time = 54.58 ns   (10.9 m%), step = 6.528 ps    (1.31 u%)
    tran: time = 54.58 ns   (10.9 m%), step = 5.089 ps    (1.02 u%)
    tran: time = 54.59 ns   (10.9 m%), step = 5.045 ps    (1.01 u%)
    tran: time = 54.59 ns   (10.9 m%), step = 4.824 ps     (965 n%)
    tran: time = 54.6 ns    (10.9 m%), step = 4.801 ps     (960 n%)
    tran: time = 54.6 ns    (10.9 m%), step = 5.16 ps     (1.03 u%)
    tran: time = 54.61 ns   (10.9 m%), step = 5.828 ps    (1.17 u%)
    tran: time = 54.61 ns   (10.9 m%), step = 6.734 ps    (1.35 u%)
    tran: time = 54.62 ns   (10.9 m%), step = 7.854 ps    (1.57 u%)
    tran: time = 54.63 ns   (10.9 m%), step = 10.02 ps       (2 u%)
    tran: time = 54.64 ns   (10.9 m%), step = 9.518 ps     (1.9 u%)
    tran: time = 54.65 ns   (10.9 m%), step = 10.74 ps    (2.15 u%)
    tran: time = 54.66 ns   (10.9 m%), step = 11.23 ps    (2.25 u%)
    tran: time = 54.67 ns   (10.9 m%), step = 9.56 ps     (1.91 u%)
    tran: time = 54.68 ns   (10.9 m%), step = 11.99 ps     (2.4 u%)
    tran: time = 54.7 ns    (10.9 m%), step = 13.2 ps     (2.64 u%)
    tran: time = 54.71 ns   (10.9 m%), step = 10.85 ps    (2.17 u%)
    tran: time = 54.72 ns   (10.9 m%), step = 13.04 ps    (2.61 u%)
    tran: time = 54.73 ns   (10.9 m%), step = 10.15 ps    (2.03 u%)
    tran: time = 54.75 ns   (10.9 m%), step = 14.09 ps    (2.82 u%)
    tran: time = 54.76 ns     (11 m%), step = 13.02 ps     (2.6 u%)
    tran: time = 54.77 ns     (11 m%), step = 13.73 ps    (2.75 u%)
    tran: time = 54.78 ns     (11 m%), step = 12.91 ps    (2.58 u%)
    tran: time = 54.8 ns      (11 m%), step = 10.98 ps     (2.2 u%)
    tran: time = 54.8 ns      (11 m%), step = 8.854 ps    (1.77 u%)
    tran: time = 54.82 ns     (11 m%), step = 14.19 ps    (2.84 u%)
    tran: time = 54.82 ns     (11 m%), step = 3.838 ps     (768 n%)
    tran: time = 54.83 ns     (11 m%), step = 7.676 ps    (1.54 u%)
    tran: time = 54.84 ns     (11 m%), step = 10.31 ps    (2.06 u%)
    tran: time = 54.85 ns     (11 m%), step = 8.535 ps    (1.71 u%)
    tran: time = 54.86 ns     (11 m%), step = 12.4 ps     (2.48 u%)
    tran: time = 54.87 ns     (11 m%), step = 13.45 ps    (2.69 u%)
    tran: time = 54.88 ns     (11 m%), step = 9.615 ps    (1.92 u%)
    tran: time = 54.9 ns      (11 m%), step = 12.67 ps    (2.53 u%)
    tran: time = 54.91 ns     (11 m%), step = 13.36 ps    (2.67 u%)
    tran: time = 54.92 ns     (11 m%), step = 13.54 ps    (2.71 u%)
    tran: time = 54.94 ns     (11 m%), step = 14.26 ps    (2.85 u%)
    tran: time = 54.95 ns     (11 m%), step = 13.52 ps     (2.7 u%)
    tran: time = 54.96 ns     (11 m%), step = 12.36 ps    (2.47 u%)
    tran: time = 54.98 ns     (11 m%), step = 12.05 ps    (2.41 u%)
    tran: time = 54.99 ns     (11 m%), step = 13.41 ps    (2.68 u%)
    tran: time = 55 ns        (11 m%), step = 12.44 ps    (2.49 u%)
    tran: time = 55.01 ns     (11 m%), step = 11.55 ps    (2.31 u%)
    tran: time = 55.03 ns     (11 m%), step = 13.03 ps    (2.61 u%)
    tran: time = 55.04 ns     (11 m%), step = 11.19 ps    (2.24 u%)
    tran: time = 55.05 ns     (11 m%), step = 9.396 ps    (1.88 u%)
    tran: time = 55.06 ns     (11 m%), step = 10.23 ps    (2.05 u%)
    tran: time = 55.07 ns     (11 m%), step = 9.071 ps    (1.81 u%)
    tran: time = 55.08 ns     (11 m%), step = 9.65 ps     (1.93 u%)
    tran: time = 55.09 ns     (11 m%), step = 8.809 ps    (1.76 u%)
    tran: time = 55.09 ns     (11 m%), step = 8.924 ps    (1.78 u%)
    tran: time = 55.1 ns      (11 m%), step = 9.222 ps    (1.84 u%)
    tran: time = 55.11 ns     (11 m%), step = 9.197 ps    (1.84 u%)
    tran: time = 55.12 ns     (11 m%), step = 9.263 ps    (1.85 u%)
    tran: time = 55.13 ns     (11 m%), step = 10.19 ps    (2.04 u%)
    tran: time = 55.14 ns     (11 m%), step = 10.69 ps    (2.14 u%)
    tran: time = 55.15 ns     (11 m%), step = 9.595 ps    (1.92 u%)
    tran: time = 55.16 ns     (11 m%), step = 8.865 ps    (1.77 u%)
    tran: time = 55.17 ns     (11 m%), step = 9.047 ps    (1.81 u%)
    tran: time = 55.18 ns     (11 m%), step = 8.993 ps     (1.8 u%)
    tran: time = 55.19 ns     (11 m%), step = 8.898 ps    (1.78 u%)
    tran: time = 55.2 ns      (11 m%), step = 8.054 ps    (1.61 u%)
    tran: time = 55.2 ns      (11 m%), step = 8.223 ps    (1.64 u%)
    tran: time = 55.21 ns     (11 m%), step = 7.056 ps    (1.41 u%)
    tran: time = 55.22 ns     (11 m%), step = 8.245 ps    (1.65 u%)
    tran: time = 55.23 ns     (11 m%), step = 8.597 ps    (1.72 u%)
    tran: time = 55.24 ns     (11 m%), step = 8.411 ps    (1.68 u%)
    tran: time = 55.25 ns     (11 m%), step = 9.926 ps    (1.99 u%)
    tran: time = 55.26 ns   (11.1 m%), step = 10.38 ps    (2.08 u%)
    tran: time = 55.27 ns   (11.1 m%), step = 11.72 ps    (2.34 u%)
    tran: time = 55.28 ns   (11.1 m%), step = 9.814 ps    (1.96 u%)
    tran: time = 55.29 ns   (11.1 m%), step = 13.68 ps    (2.74 u%)
    tran: time = 55.3 ns    (11.1 m%), step = 11.49 ps     (2.3 u%)
    tran: time = 55.31 ns   (11.1 m%), step = 9.491 ps     (1.9 u%)
    tran: time = 55.32 ns   (11.1 m%), step = 9.491 ps     (1.9 u%)
    tran: time = 55.33 ns   (11.1 m%), step = 10.47 ps    (2.09 u%)
    tran: time = 55.34 ns   (11.1 m%), step = 10.93 ps    (2.19 u%)
    tran: time = 55.36 ns   (11.1 m%), step = 11.19 ps    (2.24 u%)
    tran: time = 55.37 ns   (11.1 m%), step = 11.2 ps     (2.24 u%)
    tran: time = 55.38 ns   (11.1 m%), step = 11.2 ps     (2.24 u%)
    tran: time = 55.39 ns   (11.1 m%), step = 10.34 ps    (2.07 u%)
    tran: time = 55.4 ns    (11.1 m%), step = 11.57 ps    (2.31 u%)
    tran: time = 55.41 ns   (11.1 m%), step = 12.08 ps    (2.42 u%)
    tran: time = 55.43 ns   (11.1 m%), step = 16.14 ps    (3.23 u%)
    tran: time = 55.44 ns   (11.1 m%), step = 13.72 ps    (2.74 u%)
    tran: time = 55.46 ns   (11.1 m%), step = 16.69 ps    (3.34 u%)
    tran: time = 55.47 ns   (11.1 m%), step = 14.29 ps    (2.86 u%)
    tran: time = 55.48 ns   (11.1 m%), step = 11.27 ps    (2.25 u%)
    tran: time = 55.5 ns    (11.1 m%), step = 14.76 ps    (2.95 u%)
    tran: time = 55.51 ns   (11.1 m%), step = 13.47 ps    (2.69 u%)
    tran: time = 55.53 ns   (11.1 m%), step = 17.07 ps    (3.41 u%)
    tran: time = 55.55 ns   (11.1 m%), step = 18.33 ps    (3.67 u%)
    tran: time = 55.57 ns   (11.1 m%), step = 18.32 ps    (3.66 u%)
    tran: time = 55.59 ns   (11.1 m%), step = 20.23 ps    (4.05 u%)
    tran: time = 55.6 ns    (11.1 m%), step = 17.32 ps    (3.46 u%)
    tran: time = 55.62 ns   (11.1 m%), step = 17.38 ps    (3.48 u%)
    tran: time = 55.64 ns   (11.1 m%), step = 17.93 ps    (3.59 u%)
    tran: time = 55.66 ns   (11.1 m%), step = 18.46 ps    (3.69 u%)
    tran: time = 55.67 ns   (11.1 m%), step = 16.57 ps    (3.31 u%)
    tran: time = 55.69 ns   (11.1 m%), step = 14.19 ps    (2.84 u%)
    tran: time = 55.7 ns    (11.1 m%), step = 11.81 ps    (2.36 u%)
    tran: time = 55.71 ns   (11.1 m%), step = 12.87 ps    (2.57 u%)
    tran: time = 55.73 ns   (11.1 m%), step = 13.12 ps    (2.62 u%)
    tran: time = 55.74 ns   (11.1 m%), step = 13.16 ps    (2.63 u%)
    tran: time = 55.75 ns   (11.2 m%), step = 14.51 ps     (2.9 u%)
    tran: time = 55.77 ns   (11.2 m%), step = 20.29 ps    (4.06 u%)
    tran: time = 55.79 ns   (11.2 m%), step = 19.11 ps    (3.82 u%)
    tran: time = 55.82 ns   (11.2 m%), step = 23.17 ps    (4.63 u%)
    tran: time = 55.84 ns   (11.2 m%), step = 28.33 ps    (5.67 u%)
    tran: time = 55.87 ns   (11.2 m%), step = 26.02 ps     (5.2 u%)
    tran: time = 55.89 ns   (11.2 m%), step = 21.71 ps    (4.34 u%)
    tran: time = 55.92 ns   (11.2 m%), step = 23.3 ps     (4.66 u%)
    tran: time = 55.94 ns   (11.2 m%), step = 24.24 ps    (4.85 u%)
    tran: time = 55.96 ns   (11.2 m%), step = 19.4 ps     (3.88 u%)
    tran: time = 55.97 ns   (11.2 m%), step = 12.46 ps    (2.49 u%)
    tran: time = 55.98 ns   (11.2 m%), step = 12.46 ps    (2.49 u%)
    tran: time = 55.99 ns   (11.2 m%), step = 8.892 ps    (1.78 u%)
    tran: time = 56 ns      (11.2 m%), step = 10.99 ps     (2.2 u%)
    tran: time = 56.01 ns   (11.2 m%), step = 9.606 ps    (1.92 u%)
    tran: time = 56.02 ns   (11.2 m%), step = 10.87 ps    (2.17 u%)
    tran: time = 56.03 ns   (11.2 m%), step = 7.319 ps    (1.46 u%)
    tran: time = 56.04 ns   (11.2 m%), step = 7.319 ps    (1.46 u%)
    tran: time = 56.05 ns   (11.2 m%), step = 7.601 ps    (1.52 u%)
    tran: time = 56.05 ns   (11.2 m%), step = 7.814 ps    (1.56 u%)
    tran: time = 56.06 ns   (11.2 m%), step = 7.72 ps     (1.54 u%)
    tran: time = 56.07 ns   (11.2 m%), step = 7.292 ps    (1.46 u%)
    tran: time = 56.08 ns   (11.2 m%), step = 6.132 ps    (1.23 u%)
    tran: time = 56.08 ns   (11.2 m%), step = 5.882 ps    (1.18 u%)
    tran: time = 56.09 ns   (11.2 m%), step = 5.354 ps    (1.07 u%)
    tran: time = 56.09 ns   (11.2 m%), step = 5.297 ps    (1.06 u%)
    tran: time = 56.1 ns    (11.2 m%), step = 5.595 ps    (1.12 u%)
    tran: time = 56.1 ns    (11.2 m%), step = 6.252 ps    (1.25 u%)
    tran: time = 56.11 ns   (11.2 m%), step = 7.561 ps    (1.51 u%)
    tran: time = 56.12 ns   (11.2 m%), step = 8.927 ps    (1.79 u%)
    tran: time = 56.13 ns   (11.2 m%), step = 9.264 ps    (1.85 u%)
    tran: time = 56.14 ns   (11.2 m%), step = 10.9 ps     (2.18 u%)
    tran: time = 56.15 ns   (11.2 m%), step = 9.866 ps    (1.97 u%)
    tran: time = 56.16 ns   (11.2 m%), step = 10.61 ps    (2.12 u%)
    tran: time = 56.17 ns   (11.2 m%), step = 10.58 ps    (2.12 u%)
    tran: time = 56.18 ns   (11.2 m%), step = 10.87 ps    (2.17 u%)
    tran: time = 56.2 ns    (11.2 m%), step = 13.78 ps    (2.76 u%)
    tran: time = 56.21 ns   (11.2 m%), step = 11.51 ps     (2.3 u%)
    tran: time = 56.22 ns   (11.2 m%), step = 12.85 ps    (2.57 u%)
    tran: time = 56.23 ns   (11.2 m%), step = 11.06 ps    (2.21 u%)
    tran: time = 56.24 ns   (11.2 m%), step = 13.13 ps    (2.63 u%)
    tran: time = 56.26 ns   (11.3 m%), step = 12.06 ps    (2.41 u%)
    tran: time = 56.27 ns   (11.3 m%), step = 11 ps        (2.2 u%)
    tran: time = 56.28 ns   (11.3 m%), step = 12.24 ps    (2.45 u%)
    tran: time = 56.29 ns   (11.3 m%), step = 10.12 ps    (2.02 u%)
    tran: time = 56.3 ns    (11.3 m%), step = 8.27 ps     (1.65 u%)
    tran: time = 56.31 ns   (11.3 m%), step = 12.93 ps    (2.59 u%)
    tran: time = 56.32 ns   (11.3 m%), step = 8.853 ps    (1.77 u%)
    tran: time = 56.33 ns   (11.3 m%), step = 13.51 ps     (2.7 u%)
    tran: time = 56.35 ns   (11.3 m%), step = 13.97 ps    (2.79 u%)
    tran: time = 56.36 ns   (11.3 m%), step = 12.89 ps    (2.58 u%)
    tran: time = 56.38 ns   (11.3 m%), step = 16.67 ps    (3.33 u%)
    tran: time = 56.39 ns   (11.3 m%), step = 11.78 ps    (2.36 u%)
    tran: time = 56.4 ns    (11.3 m%), step = 14.06 ps    (2.81 u%)
    tran: time = 56.42 ns   (11.3 m%), step = 15.84 ps    (3.17 u%)
    tran: time = 56.43 ns   (11.3 m%), step = 14.3 ps     (2.86 u%)
    tran: time = 56.45 ns   (11.3 m%), step = 13.11 ps    (2.62 u%)
    tran: time = 56.46 ns   (11.3 m%), step = 14.09 ps    (2.82 u%)
    tran: time = 56.47 ns   (11.3 m%), step = 12.13 ps    (2.43 u%)
    tran: time = 56.48 ns   (11.3 m%), step = 12.22 ps    (2.44 u%)
    tran: time = 56.5 ns    (11.3 m%), step = 12.27 ps    (2.45 u%)
    tran: time = 56.51 ns   (11.3 m%), step = 13.22 ps    (2.64 u%)
    tran: time = 56.52 ns   (11.3 m%), step = 11.73 ps    (2.35 u%)
    tran: time = 56.53 ns   (11.3 m%), step = 11.13 ps    (2.23 u%)
    tran: time = 56.54 ns   (11.3 m%), step = 8.987 ps     (1.8 u%)
    tran: time = 56.55 ns   (11.3 m%), step = 8.751 ps    (1.75 u%)
    tran: time = 56.56 ns   (11.3 m%), step = 8.057 ps    (1.61 u%)
    tran: time = 56.57 ns   (11.3 m%), step = 10.03 ps    (2.01 u%)
    tran: time = 56.58 ns   (11.3 m%), step = 8.906 ps    (1.78 u%)
    tran: time = 56.59 ns   (11.3 m%), step = 8.848 ps    (1.77 u%)
    tran: time = 56.6 ns    (11.3 m%), step = 8.94 ps     (1.79 u%)
    tran: time = 56.6 ns    (11.3 m%), step = 9.02 ps      (1.8 u%)
    tran: time = 56.61 ns   (11.3 m%), step = 8.793 ps    (1.76 u%)
    tran: time = 56.62 ns   (11.3 m%), step = 9.889 ps    (1.98 u%)
    tran: time = 56.63 ns   (11.3 m%), step = 8.885 ps    (1.78 u%)
    tran: time = 56.64 ns   (11.3 m%), step = 10.36 ps    (2.07 u%)
    tran: time = 56.65 ns   (11.3 m%), step = 9.324 ps    (1.86 u%)
    tran: time = 56.66 ns   (11.3 m%), step = 8.983 ps     (1.8 u%)
    tran: time = 56.67 ns   (11.3 m%), step = 8.227 ps    (1.65 u%)
    tran: time = 56.68 ns   (11.3 m%), step = 6.97 ps     (1.39 u%)
    tran: time = 56.68 ns   (11.3 m%), step = 8.757 ps    (1.75 u%)
    tran: time = 56.69 ns   (11.3 m%), step = 7.163 ps    (1.43 u%)
    tran: time = 56.7 ns    (11.3 m%), step = 6.879 ps    (1.38 u%)
    tran: time = 56.71 ns   (11.3 m%), step = 6.798 ps    (1.36 u%)
    tran: time = 56.71 ns   (11.3 m%), step = 8.085 ps    (1.62 u%)
    tran: time = 56.72 ns   (11.3 m%), step = 8.102 ps    (1.62 u%)
    tran: time = 56.73 ns   (11.3 m%), step = 11.77 ps    (2.35 u%)
    tran: time = 56.75 ns   (11.3 m%), step = 13.63 ps    (2.73 u%)
    tran: time = 56.76 ns   (11.4 m%), step = 13.8 ps     (2.76 u%)
    tran: time = 56.77 ns   (11.4 m%), step = 12.95 ps    (2.59 u%)
    tran: time = 56.79 ns   (11.4 m%), step = 17.4 ps     (3.48 u%)
    tran: time = 56.81 ns   (11.4 m%), step = 16.28 ps    (3.26 u%)
    tran: time = 56.82 ns   (11.4 m%), step = 12.52 ps     (2.5 u%)
    tran: time = 56.84 ns   (11.4 m%), step = 16.75 ps    (3.35 u%)
    tran: time = 56.85 ns   (11.4 m%), step = 13.88 ps    (2.78 u%)
    tran: time = 56.86 ns   (11.4 m%), step = 13.54 ps    (2.71 u%)
    tran: time = 56.87 ns   (11.4 m%), step = 10.83 ps    (2.17 u%)
    tran: time = 56.89 ns   (11.4 m%), step = 11.53 ps    (2.31 u%)
    tran: time = 56.9 ns    (11.4 m%), step = 11.9 ps     (2.38 u%)
    tran: time = 56.91 ns   (11.4 m%), step = 12.26 ps    (2.45 u%)
    tran: time = 56.92 ns   (11.4 m%), step = 14.24 ps    (2.85 u%)
    tran: time = 56.94 ns   (11.4 m%), step = 13.95 ps    (2.79 u%)
    tran: time = 56.95 ns   (11.4 m%), step = 13.92 ps    (2.78 u%)
    tran: time = 56.97 ns   (11.4 m%), step = 12.89 ps    (2.58 u%)
    tran: time = 56.98 ns   (11.4 m%), step = 14.68 ps    (2.94 u%)
    tran: time = 56.98 ns   (11.4 m%), step = 3.698 ps     (740 n%)
    tran: time = 56.99 ns   (11.4 m%), step = 7.396 ps    (1.48 u%)
    tran: time = 57 ns      (11.4 m%), step = 10.16 ps    (2.03 u%)
    tran: time = 57.01 ns   (11.4 m%), step = 9.588 ps    (1.92 u%)
    tran: time = 57.02 ns   (11.4 m%), step = 11.06 ps    (2.21 u%)
    tran: time = 57.03 ns   (11.4 m%), step = 10.46 ps    (2.09 u%)
    tran: time = 57.04 ns   (11.4 m%), step = 10.09 ps    (2.02 u%)
    tran: time = 57.05 ns   (11.4 m%), step = 8.022 ps     (1.6 u%)
    tran: time = 57.06 ns   (11.4 m%), step = 10.07 ps    (2.01 u%)
    tran: time = 57.07 ns   (11.4 m%), step = 9.032 ps    (1.81 u%)
    tran: time = 57.08 ns   (11.4 m%), step = 11.54 ps    (2.31 u%)
    tran: time = 57.09 ns   (11.4 m%), step = 11.44 ps    (2.29 u%)
